123847
  Marvin  01010808303D          

 56 60  0  0  1  0            999 V2000
    0.8875   -1.9466   -2.0618 P   0  0  2  0  0  0  0  0  0  0  0  0
   -1.6172   -2.1587   -1.1890 P   0  0  2  0  0  0  0  0  0  0  0  0
    3.0728   -0.6029    0.3765 O   0  0  0  0  0  0  0  0  0  0  0  0
   -3.2711    0.8072    0.1076 O   0  0  0  0  0  0  0  0  0  0  0  0
    3.7706   -0.4287    3.9242 O   0  0  0  0  0  0  0  0  0  0  0  0
    4.9128   -2.3607    2.3420 O   0  0  0  0  0  0  0  0  0  0  0  0
   -2.1966    3.5762   -1.8564 O   0  0  0  0  0  0  0  0  0  0  0  0
   -4.4139    2.3067   -2.7095 O   0  0  0  0  0  0  0  0  0  0  0  0
    1.6896   -2.7283   -1.1285 O   0  0  0  0  0  0  0  0  0  0  0  0
   -2.7209   -1.4610   -1.8345 O   0  0  0  0  0  0  0  0  0  0  0  0
   -0.5180   -2.3191   -2.1283 O   0  0  0  0  0  0  0  0  0  0  0  0
    1.3938   -2.2994   -3.3644 O   0  0  0  0  0  0  0  0  0  0  0  0
   -2.0467   -3.4714   -0.7780 O   0  0  0  0  0  0  0  0  0  0  0  0
    1.0860   -0.5255   -1.9322 O   0  0  0  0  0  0  0  0  0  0  0  0
   -1.2718   -1.4765    0.0268 O   0  0  0  0  0  0  0  0  0  0  0  0
    2.5573    1.3708    1.4521 N   0  0  0  0  0  0  0  0  0  0  0  0
   -1.3372    2.0465    0.8511 N   0  0  0  0  0  0  0  0  0  0  0  0
    0.2420    0.6540    1.7832 N   0  0  0  0  0  0  0  0  0  0  0  0
    2.0281    3.4983    0.9681 N   0  0  0  0  0  0  0  0  0  0  0  0
   -0.7795    4.2904    0.6173 N   0  0  0  0  0  0  0  0  0  0  0  0
    3.3329    0.1649    1.5581 C   0  0  1  0  0  0  0  0  0  0  0  0
    3.0710   -0.7948    2.7377 C   0  0  1  0  0  0  0  0  0  0  0  0
    3.5137   -2.1466    2.1491 C   0  0  1  0  0  0  0  0  0  0  0  0
   -2.5276    2.0391    0.0565 C   0  0  1  0  0  0  0  0  0  0  0  0
    3.1719   -2.0071    0.6433 C   0  0  1  0  0  0  0  0  0  0  0  0
   -2.2735    2.2050   -1.4661 C   0  0  1  0  0  0  0  0  0  0  0  0
   -3.4036    1.4426   -2.1884 C   0  0  1  0  0  0  0  0  0  0  0  0
   -3.9722    0.5060   -1.0978 C   0  0  1  0  0  0  0  0  0  0  0  0
    1.8487   -2.6857    0.2020 C   0  0  0  0  0  0  0  0  0  0  0  0
    1.2184    1.5000    1.4677 C   0  0  0  0  0  0  0  0  0  0  0  0
   -3.8998   -1.0237   -1.3626 C   0  0  0  0  0  0  0  0  0  0  0  0
    0.8906    2.7970    1.0699 C   0  0  0  0  0  0  0  0  0  0  0  0
   -0.4626    3.0716    0.8458 C   0  0  0  0  0  0  0  0  0  0  0  0
    3.0182    2.6192    1.2156 C   0  0  0  0  0  0  0  0  0  0  0  0
   -0.9915    0.9464    1.5333 C   0  0  0  0  0  0  0  0  0  0  0  0
    4.4032    0.4017    1.5375 H   0  0  0  0  0  0  0  0  0  0  0  0
    2.0094   -0.8523    2.9857 H   0  0  0  0  0  0  0  0  0  0  0  0
    2.9938   -2.9783    2.6329 H   0  0  0  0  0  0  0  0  0  0  0  0
   -3.2102    2.8197    0.4086 H   0  0  0  0  0  0  0  0  0  0  0  0
    3.9826   -2.4157    0.0321 H   0  0  0  0  0  0  0  0  0  0  0  0
   -1.3176    1.7398   -1.7281 H   0  0  0  0  0  0  0  0  0  0  0  0
   -2.9992    0.8962   -3.0456 H   0  0  0  0  0  0  0  0  0  0  0  0
   -5.0195    0.7544   -0.8994 H   0  0  0  0  0  0  0  0  0  0  0  0
    1.8661   -3.7307    0.5173 H   0  0  0  0  0  0  0  0  0  0  0  0
    1.0174   -2.2192    0.7334 H   0  0  0  0  0  0  0  0  0  0  0  0
   -4.6346   -1.2729   -2.1304 H   0  0  0  0  0  0  0  0  0  0  0  0
   -4.2202   -1.5566   -0.4594 H   0  0  0  0  0  0  0  0  0  0  0  0
    4.0062    2.8796    1.1884 H   0  0  0  0  0  0  0  0  0  0  0  0
   -1.6566    0.2842    1.8547 H   0  0  0  0  0  0  0  0  0  0  0  0
    3.4279    0.4584    4.1603 H   0  0  0  0  0  0  0  0  0  0  0  0
    5.0986   -3.2323    1.9331 H   0  0  0  0  0  0  0  0  0  0  0  0
   -2.0497    3.5690   -2.8254 H   0  0  0  0  0  0  0  0  0  0  0  0
   -5.0558    1.7113   -3.1516 H   0  0  0  0  0  0  0  0  0  0  0  0
   -1.6675    4.5302    0.4488 H   0  0  0  0  0  0  0  0  0  0  0  0
    1.3363   -3.1309   -3.6508 H   0  0  0  0  0  0  0  0  0  0  0  0
   -2.3131   -4.0607   -1.3730 H   0  0  0  0  0  0  0  0  0  0  0  0
  1  9  1  0  0  0  0
  1 11  1  0  0  0  0
  1 12  1  0  0  0  0
  1 14  2  0  0  0  0
  2 10  1  0  0  0  0
  2 11  1  0  0  0  0
  2 13  1  0  0  0  0
  2 15  2  0  0  0  0
  3 21  1  0  0  0  0
  3 25  1  0  0  0  0
  4 24  1  0  0  0  0
  4 28  1  0  0  0  0
 22  5  1  0  0  0  0
  5 50  1  0  0  0  0
 23  6  1  0  0  0  0
  6 51  1  0  0  0  0
 26  7  1  0  0  0  0
  7 52  1  0  0  0  0
 27  8  1  0  0  0  0
  8 53  1  0  0  0  0
  9 29  1  0  0  0  0
 10 31  1  0  0  0  0
 12 55  1  0  0  0  0
 13 56  1  0  0  0  0
 16 21  1  0  0  0  0
 16 30  1  0  0  0  0
 16 34  1  0  0  0  0
 17 24  1  0  0  0  0
 17 33  1  0  0  0  0
 17 35  1  0  0  0  0
 18 30  1  0  0  0  0
 18 35  2  0  0  0  0
 19 32  1  0  0  0  0
 19 34  2  0  0  0  0
 20 33  2  0  0  0  0
 20 54  1  0  0  0  0
 21 22  1  0  0  0  0
 21 36  1  0  0  0  0
 22 23  1  0  0  0  0
 22 37  1  0  0  0  0
 23 25  1  0  0  0  0
 23 38  1  0  0  0  0
 24 26  1  0  0  0  0
 24 39  1  0  0  0  0
 25 29  1  0  0  0  0
 25 40  1  0  0  0  0
 26 27  1  0  0  0  0
 26 41  1  0  0  0  0
 27 28  1  0  0  0  0
 27 42  1  0  0  0  0
 28 31  1  0  0  0  0
 28 43  1  0  0  0  0
 29 44  1  0  0  0  0
 29 45  1  0  0  0  0
 30 32  2  0  0  0  0
 31 46  1  0  0  0  0
 31 47  1  0  0  0  0
 32 33  1  0  0  0  0
 34 48  1  0  0  0  0
 35 49  1  0  0  0  0
M  END
> <PUBCHEM_BONDANNOTATIONS>
16  30  8
16  34  8
17  33  8
17  35  8
18  30  8
18  35  8
19  32  8
19  34  8
21  36  5
24  39  6
25  40  5
28  43  6
30  32  8
32  33  8
22  5  5
23  6  5
26  7  6
27  8  6

$$$$
