3082397
  Marvin  12310703113D          

 74 75  0  0  1  0            999 V2000
    0.6247   -2.2330   -3.2605 O   0  0  0  0  0  0  0  0  0  0  0  0
    4.0182   -0.2289    0.2405 O   0  0  0  0  0  0  0  0  0  0  0  0
   -2.1131   -3.8213   -2.4275 O   0  0  0  0  0  0  0  0  0  0  0  0
    1.2592    3.0496    2.6174 O   0  0  0  0  0  0  0  0  0  0  0  0
    0.3691   -2.1704   -1.0914 N   0  0  0  0  0  0  0  0  0  0  0  0
    2.6662   -0.4409   -1.4018 N   0  0  0  0  0  0  0  0  0  0  0  0
    1.8929    1.4055    1.4260 N   0  0  0  0  0  0  0  0  0  0  0  0
   -0.5398    1.2233    3.9127 N   0  0  0  0  0  0  0  0  0  0  0  0
   -2.5435   -2.1929   -1.1178 N   0  0  0  0  0  0  0  0  0  0  0  0
   -5.2330    1.8499    1.3291 N   0  0  0  0  0  0  0  0  0  0  0  0
   -6.4992    3.3707    0.2351 N   0  0  0  0  0  0  0  0  0  0  0  0
   -7.3919    1.5506    1.1092 N   0  0  0  0  0  0  0  0  0  0  0  0
    1.5038   -0.3546   -2.1913 C   0  0  1  0  0  0  0  0  0  0  0  0
    1.8540    0.2370   -3.5917 C   0  0  0  0  0  0  0  0  0  0  0  0
   -0.4255   -3.3088   -0.8967 C   0  0  1  0  0  0  0  0  0  0  0  0
    0.8122   -1.6438   -2.2037 C   0  0  0  0  0  0  0  0  0  0  0  0
   -0.5200   -3.7099    0.6108 C   0  0  0  0  0  0  0  0  0  0  0  0
   -0.3530    1.3977    2.4678 C   0  0  1  0  0  0  0  0  0  0  0  0
   -1.4845    2.2174    1.7946 C   0  0  0  0  0  0  0  0  0  0  0  0
    2.5533    1.5478   -3.5361 C   0  0  0  0  0  0  0  0  0  0  0  0
   -2.8837    1.5529    1.8624 C   0  0  0  0  0  0  0  0  0  0  0  0
    0.7753   -3.8777    1.3303 C   0  0  0  0  0  0  0  0  0  0  0  0
    2.8603   -0.1638   -0.1422 C   0  0  0  0  0  0  0  0  0  0  0  0
    1.8449    0.1415    0.8456 C   0  0  0  0  0  0  0  0  0  0  0  0
   -1.7399   -3.1184   -1.5005 C   0  0  0  0  0  0  0  0  0  0  0  0
    0.9707    1.9496    2.1692 C   0  0  0  0  0  0  0  0  0  0  0  0
    3.9670    1.5973   -3.5058 C   0  0  0  0  0  0  0  0  0  0  0  0
    1.8337    2.7650   -3.4811 C   0  0  0  0  0  0  0  0  0  0  0  0
   -3.9791    2.4440    1.2399 C   0  0  0  0  0  0  0  0  0  0  0  0
    1.0844   -3.1146    2.4829 C   0  0  0  0  0  0  0  0  0  0  0  0
    1.7377   -4.8132    0.8802 C   0  0  0  0  0  0  0  0  0  0  0  0
    4.6452    2.8261   -3.4278 C   0  0  0  0  0  0  0  0  0  0  0  0
    2.5096    3.9974   -3.4088 C   0  0  0  0  0  0  0  0  0  0  0  0
    3.9156    4.0270   -3.3829 C   0  0  0  0  0  0  0  0  0  0  0  0
    2.3237   -3.2493    3.1371 C   0  0  0  0  0  0  0  0  0  0  0  0
    2.9795   -4.9517    1.5276 C   0  0  0  0  0  0  0  0  0  0  0  0
    3.2747   -4.1640    2.6536 C   0  0  0  0  0  0  0  0  0  0  0  0
   -6.3608    2.2716    0.8855 C   0  0  0  0  0  0  0  0  0  0  0  0
    0.7933    0.3741   -1.7880 H   0  0  0  0  0  0  0  0  0  0  0  0
    0.9342    0.3478   -4.1760 H   0  0  0  0  0  0  0  0  0  0  0  0
    2.4569   -0.4819   -4.1547 H   0  0  0  0  0  0  0  0  0  0  0  0
    0.0815   -4.1370   -1.4036 H   0  0  0  0  0  0  0  0  0  0  0  0
   -1.0561   -4.6602    0.6898 H   0  0  0  0  0  0  0  0  0  0  0  0
   -1.1440   -2.9763    1.1313 H   0  0  0  0  0  0  0  0  0  0  0  0
    0.6032   -1.7262   -0.3069 H   0  0  0  0  0  0  0  0  0  0  0  0
    3.4276   -0.7337   -1.8605 H   0  0  0  0  0  0  0  0  0  0  0  0
   -0.4667    0.3761    2.1060 H   0  0  0  0  0  0  0  0  0  0  0  0
   -1.2407    2.3604    0.7356 H   0  0  0  0  0  0  0  0  0  0  0  0
   -1.5278    3.2090    2.2541 H   0  0  0  0  0  0  0  0  0  0  0  0
   -2.8561    0.5977    1.3282 H   0  0  0  0  0  0  0  0  0  0  0  0
   -3.1395    1.3437    2.9046 H   0  0  0  0  0  0  0  0  0  0  0  0
    1.9060   -0.5998    1.6423 H   0  0  0  0  0  0  0  0  0  0  0  0
    0.8659    0.0343    0.3907 H   0  0  0  0  0  0  0  0  0  0  0  0
    2.6716    1.9052    1.2826 H   0  0  0  0  0  0  0  0  0  0  0  0
   -3.7350    2.6308    0.1900 H   0  0  0  0  0  0  0  0  0  0  0  0
   -4.0066    3.4017    1.7678 H   0  0  0  0  0  0  0  0  0  0  0  0
    4.5184    0.7358   -3.5329 H   0  0  0  0  0  0  0  0  0  0  0  0
    0.8104    2.7666   -3.4908 H   0  0  0  0  0  0  0  0  0  0  0  0
    0.2069    0.6008    4.2308 H   0  0  0  0  0  0  0  0  0  0  0  0
   -0.4032    2.1282    4.3640 H   0  0  0  0  0  0  0  0  0  0  0  0
    0.4133   -2.4409    2.8601 H   0  0  0  0  0  0  0  0  0  0  0  0
    1.5489   -5.4070    0.0697 H   0  0  0  0  0  0  0  0  0  0  0  0
    5.6671    2.8435   -3.4023 H   0  0  0  0  0  0  0  0  0  0  0  0
    1.9799    4.8713   -3.3735 H   0  0  0  0  0  0  0  0  0  0  0  0
    4.4085    4.9209   -3.3302 H   0  0  0  0  0  0  0  0  0  0  0  0
   -2.3116   -1.6344   -0.4042 H   0  0  0  0  0  0  0  0  0  0  0  0
   -3.3622   -2.0703   -1.5528 H   0  0  0  0  0  0  0  0  0  0  0  0
    2.5346   -2.6809    3.9608 H   0  0  0  0  0  0  0  0  0  0  0  0
    3.6670   -5.6237    1.1793 H   0  0  0  0  0  0  0  0  0  0  0  0
    4.1790   -4.2587    3.1216 H   0  0  0  0  0  0  0  0  0  0  0  0
   -7.3490    3.6949    0.0213 H   0  0  0  0  0  0  0  0  0  0  0  0
   -5.7417    3.8546   -0.0255 H   0  0  0  0  0  0  0  0  0  0  0  0
   -7.3251    0.7856    1.6440 H   0  0  0  0  0  0  0  0  0  0  0  0
   -8.2176    1.7832    0.7371 H   0  0  0  0  0  0  0  0  0  0  0  0
  1 16  2  0  0  0  0
  2 23  2  0  0  0  0
  3 25  2  0  0  0  0
  4 26  2  0  0  0  0
 15  5  1  0  0  0  0
  5 16  1  0  0  0  0
  5 45  1  0  0  0  0
 13  6  1  0  0  0  0
  6 23  1  0  0  0  0
  6 46  1  0  0  0  0
  7 24  1  0  0  0  0
  7 26  1  0  0  0  0
  7 54  1  0  0  0  0
 18  8  1  0  0  0  0
  8 59  1  0  0  0  0
  8 60  1  0  0  0  0
  9 25  1  0  0  0  0
  9 66  1  0  0  0  0
  9 67  1  0  0  0  0
 10 29  1  0  0  0  0
 10 38  2  0  0  0  0
 11 38  1  0  0  0  0
 11 71  1  0  0  0  0
 11 72  1  0  0  0  0
 12 38  1  0  0  0  0
 12 73  1  0  0  0  0
 12 74  1  0  0  0  0
 13 14  1  0  0  0  0
 13 16  1  0  0  0  0
 13 39  1  0  0  0  0
 14 20  1  0  0  0  0
 14 40  1  0  0  0  0
 14 41  1  0  0  0  0
 15 17  1  0  0  0  0
 15 25  1  0  0  0  0
 15 42  1  0  0  0  0
 17 22  1  0  0  0  0
 17 43  1  0  0  0  0
 17 44  1  0  0  0  0
 18 19  1  0  0  0  0
 18 26  1  0  0  0  0
 18 47  1  0  0  0  0
 19 21  1  0  0  0  0
 19 48  1  0  0  0  0
 19 49  1  0  0  0  0
 20 27  2  0  0  0  0
 20 28  1  0  0  0  0
 21 29  1  0  0  0  0
 21 50  1  0  0  0  0
 21 51  1  0  0  0  0
 22 30  2  0  0  0  0
 22 31  1  0  0  0  0
 23 24  1  0  0  0  0
 24 52  1  0  0  0  0
 24 53  1  0  0  0  0
 27 32  1  0  0  0  0
 27 57  1  0  0  0  0
 28 33  2  0  0  0  0
 28 58  1  0  0  0  0
 29 55  1  0  0  0  0
 29 56  1  0  0  0  0
 30 35  1  0  0  0  0
 30 61  1  0  0  0  0
 31 36  2  0  0  0  0
 31 62  1  0  0  0  0
 32 34  2  0  0  0  0
 32 63  1  0  0  0  0
 33 34  1  0  0  0  0
 33 64  1  0  0  0  0
 34 65  1  0  0  0  0
 35 37  2  0  0  0  0
 35 68  1  0  0  0  0
 36 37  1  0  0  0  0
 36 69  1  0  0  0  0
 37 70  1  0  0  0  0
M  END
> <PUBCHEM_BONDANNOTATIONS>
20  27  8
20  28  8
22  30  8
22  31  8
27  32  8
28  33  8
30  35  8
31  36  8
32  34  8
33  34  8
35  37  8
36  37  8
15  5  6
13  6  5
18  8  6

$$$$
