3613011
  -OEChem-02070709292D

216223  0     1  0  0  0  0  0999 V2000
    9.4651   -2.0707    0.0000 O   0  0  0  0  0  0  0  0  0  0  0  0
   12.0632   -0.5707    0.0000 O   0  0  0  0  0  0  0  0  0  0  0  0
    7.7331   -3.0707    0.0000 O   0  0  0  0  0  0  0  0  0  0  0  0
   11.1972    0.9293    0.0000 O   0  0  0  0  0  0  0  0  0  0  0  0
   10.3312   -3.5707    0.0000 O   0  0  0  0  0  0  0  0  0  0  0  0
    6.8671   -4.5707    0.0000 O   0  0  0  0  0  0  0  0  0  0  0  0
   15.5273   -0.5707    0.0000 O   0  0  0  0  0  0  0  0  0  0  0  0
   13.7953   -1.5707    0.0000 O   0  0  0  0  0  0  0  0  0  0  0  0
   10.6972    3.5274    0.0000 O   0  0  0  0  0  0  0  0  0  0  0  0
    4.2690   -5.0707    0.0000 O   0  0  0  0  0  0  0  0  0  0  0  0
   17.2594   -0.5707    0.0000 O   0  0  0  0  0  0  0  0  0  0  0  0
   14.6613   -3.0707    0.0000 O   0  0  0  0  0  0  0  0  0  0  0  0
   11.1972   -3.0707    0.0000 O   0  0  0  0  0  0  0  0  0  0  0  0
    9.3312   -0.5707    0.0000 O   0  0  0  0  0  0  0  0  0  0  0  0
   18.9914    1.4293    0.0000 O   0  0  0  0  0  0  0  0  0  0  0  0
    7.7331   -5.0707    0.0000 O   0  0  0  0  0  0  0  0  0  0  0  0
    9.1972    4.3934    0.0000 O   0  0  0  0  0  0  0  0  0  0  0  0
    4.2690   -3.0707    0.0000 O   0  0  0  0  0  0  0  0  0  0  0  0
    9.4651   -6.0707    0.0000 O   0  0  0  0  0  0  0  0  0  0  0  0
    9.1972    0.9294    0.0000 O   0  0  0  0  0  0  0  0  0  0  0  0
    5.1350   -6.5707    0.0000 O   0  0  0  0  0  0  0  0  0  0  0  0
   17.2594    2.4293    0.0000 O   0  0  0  0  0  0  0  0  0  0  0  0
   17.2594   -1.5707    0.0000 O   0  0  0  0  0  0  0  0  0  0  0  0
   19.8574   -0.0707    0.0000 O   0  0  0  0  0  0  0  0  0  0  0  0
   17.2594   -3.5707    0.0000 O   0  0  0  0  0  0  0  0  0  0  0  0
   11.1972   -6.0707    0.0000 O   0  0  0  0  0  0  0  0  0  0  0  0
    6.8671   -6.5707    0.0000 O   0  0  0  0  0  0  0  0  0  0  0  0
   12.6972    3.5274    0.0000 O   0  0  0  0  0  0  0  0  0  0  0  0
    2.5369   -6.0707    0.0000 O   0  0  0  0  0  0  0  0  0  0  0  0
    2.5369   -8.0707    0.0000 O   0  0  0  0  0  0  0  0  0  0  0  0
   18.9914   -1.5707    0.0000 O   0  0  0  0  0  0  0  0  0  0  0  0
   20.7235    2.4293    0.0000 O   0  0  0  0  0  0  0  0  0  0  0  0
    4.2690   -9.0707    0.0000 O   0  0  0  0  0  0  0  0  0  0  0  0
   16.3933   -5.0707    0.0000 O   0  0  0  0  0  0  0  0  0  0  0  0
   22.4555    1.4293    0.0000 O   0  0  0  0  0  0  0  0  0  0  0  0
   22.4555   -0.5707    0.0000 O   0  0  0  0  0  0  0  0  0  0  0  0
    8.1972    6.1255    0.0000 O   0  0  0  0  0  0  0  0  0  0  0  0
   11.1972    4.3934    0.0000 O   0  0  0  0  0  0  0  0  0  0  0  0
    4.2690   -2.0707    0.0000 O   0  0  0  0  0  0  0  0  0  0  0  0
    6.0010   -9.0707    0.0000 O   0  0  0  0  0  0  0  0  0  0  0  0
    6.6972    3.5275    0.0000 O   0  0  0  0  0  0  0  0  0  0  0  0
   21.5895   -2.0707    0.0000 O   0  0  0  0  0  0  0  0  0  0  0  0
   14.6613    2.9293    0.0000 O   0  0  0  0  0  0  0  0  0  0  0  0
   12.1972    6.1255    0.0000 O   0  0  0  0  0  0  0  0  0  0  0  0
   10.4842    8.4371    0.0000 O   0  0  0  0  0  0  0  0  0  0  0  0
    9.7181    9.0799    0.0000 O   0  0  0  0  0  0  0  0  0  0  0  0
    6.0010   -2.0707    0.0000 N   0  0  0  0  0  0  0  0  0  0  0  0
    8.1972    2.6615    0.0000 N   0  0  0  0  0  0  0  0  0  0  0  0
   15.5273    1.4293    0.0000 N   0  0  0  0  0  0  0  0  0  0  0  0
    8.6048    7.7531    0.0000 N   0  0  0  0  0  0  0  0  0  0  0  0
   10.3312   -1.5707    0.0000 C   0  0  3  0  0  0  0  0  0  0  0  0
   11.1972   -2.0707    0.0000 C   0  0  3  0  0  0  0  0  0  0  0  0
   10.3312   -0.5707    0.0000 C   0  0  3  0  0  0  0  0  0  0  0  0
    8.5991   -3.5707    0.0000 C   0  0  3  0  0  0  0  0  0  0  0  0
   12.0632   -1.5707    0.0000 C   0  0  3  0  0  0  0  0  0  0  0  0
    9.4651   -3.0707    0.0000 C   0  0  3  0  0  0  0  0  0  0  0  0
   11.1972   -0.0707    0.0000 C   0  0  3  0  0  0  0  0  0  0  0  0
    8.5991   -4.5707    0.0000 C   0  0  3  0  0  0  0  0  0  0  0  0
   10.6972    1.7954    0.0000 C   0  0  3  0  0  0  0  0  0  0  0  0
    6.0010   -3.0707    0.0000 C   0  0  3  0  0  0  0  0  0  0  0  0
    6.8671   -3.5707    0.0000 C   0  0  3  0  0  0  0  0  0  0  0  0
    5.1350   -4.5707    0.0000 C   0  0  3  0  0  0  0  0  0  0  0  0
    5.1350   -3.5707    0.0000 C   0  0  3  0  0  0  0  0  0  0  0  0
    9.4651   -5.0707    0.0000 C   0  0  3  0  0  0  0  0  0  0  0  0
    9.6972    1.7954    0.0000 C   0  0  3  0  0  0  0  0  0  0  0  0
   10.3312   -4.5707    0.0000 C   0  0  3  0  0  0  0  0  0  0  0  0
   15.5273   -1.5707    0.0000 C   0  0  3  0  0  0  0  0  0  0  0  0
   11.1972    2.6614    0.0000 C   0  0  3  0  0  0  0  0  0  0  0  0
    6.0010   -5.0707    0.0000 C   0  0  3  0  0  0  0  0  0  0  0  0
    9.1972    2.6614    0.0000 C   0  0  3  0  0  0  0  0  0  0  0  0
   12.9292   -2.0707    0.0000 C   0  0  0  0  0  0  0  0  0  0  0  0
   16.3933    0.9293    0.0000 C   0  0  3  0  0  0  0  0  0  0  0  0
   14.6613   -2.0707    0.0000 C   0  0  3  0  0  0  0  0  0  0  0  0
   16.3933   -0.0707    0.0000 C   0  0  3  0  0  0  0  0  0  0  0  0
   18.1254    0.9293    0.0000 C   0  0  3  0  0  0  0  0  0  0  0  0
   17.2594    1.4293    0.0000 C   0  0  3  0  0  0  0  0  0  0  0  0
   16.3933   -2.0707    0.0000 C   0  0  3  0  0  0  0  0  0  0  0  0
    9.6972    3.5274    0.0000 C   0  0  3  0  0  0  0  0  0  0  0  0
   18.1254   -0.0707    0.0000 C   0  0  3  0  0  0  0  0  0  0  0  0
   16.3933   -3.0707    0.0000 C   0  0  3  0  0  0  0  0  0  0  0  0
   15.5273   -3.5707    0.0000 C   0  0  3  0  0  0  0  0  0  0  0  0
    4.2690   -6.0707    0.0000 C   0  0  3  0  0  0  0  0  0  0  0  0
   11.1972   -5.0707    0.0000 C   0  0  0  0  0  0  0  0  0  0  0  0
    6.0010   -6.0707    0.0000 C   0  0  0  0  0  0  0  0  0  0  0  0
   12.1972    2.6614    0.0000 C   0  0  0  0  0  0  0  0  0  0  0  0
    3.4030   -6.5707    0.0000 C   0  0  3  0  0  0  0  0  0  0  0  0
   19.8574    0.9293    0.0000 C   0  0  3  0  0  0  0  0  0  0  0  0
    3.4030   -7.5707    0.0000 C   0  0  3  0  0  0  0  0  0  0  0  0
   18.9914   -0.5707    0.0000 C   0  0  0  0  0  0  0  0  0  0  0  0
   20.7235    1.4293    0.0000 C   0  0  3  0  0  0  0  0  0  0  0  0
    4.2690   -8.0707    0.0000 C   0  0  3  0  0  0  0  0  0  0  0  0
    5.1350   -7.5707    0.0000 C   0  0  3  0  0  0  0  0  0  0  0  0
    9.6972    5.2595    0.0000 C   0  0  3  0  0  0  0  0  0  0  0  0
   15.5273   -4.5707    0.0000 C   0  0  0  0  0  0  0  0  0  0  0  0
   21.5895    0.9293    0.0000 C   0  0  3  0  0  0  0  0  0  0  0  0
   21.5895   -0.0707    0.0000 C   0  0  3  0  0  0  0  0  0  0  0  0
   20.7235   -0.5707    0.0000 C   0  0  3  0  0  0  0  0  0  0  0  0
    9.1972    6.1255    0.0000 C   0  0  3  0  0  0  0  0  0  0  0  0
    5.1350   -1.5707    0.0000 C   0  0  0  0  0  0  0  0  0  0  0  0
   10.6972    5.2595    0.0000 C   0  0  3  0  0  0  0  0  0  0  0  0
    7.6972    3.5274    0.0000 C   0  0  0  0  0  0  0  0  0  0  0  0
    6.0010   -8.0707    0.0000 C   0  0  0  0  0  0  0  0  0  0  0  0
   15.5273    2.4293    0.0000 C   0  0  0  0  0  0  0  0  0  0  0  0
   20.7235   -1.5707    0.0000 C   0  0  0  0  0  0  0  0  0  0  0  0
    9.3708    7.1103    0.0000 C   0  0  3  0  0  0  0  0  0  0  0  0
    5.1350   -0.5707    0.0000 C   0  0  0  0  0  0  0  0  0  0  0  0
   11.1972    6.1255    0.0000 C   0  0  0  0  0  0  0  0  0  0  0  0
    8.1972    4.3934    0.0000 C   0  0  0  0  0  0  0  0  0  0  0  0
   16.3933    2.9293    0.0000 C   0  0  0  0  0  0  0  0  0  0  0  0
   10.3105    7.4523    0.0000 C   0  0  0  0  0  0  0  0  0  0  0  0
    8.7784    8.7379    0.0000 C   0  0  0  0  0  0  0  0  0  0  0  0
    8.0124    9.3807    0.0000 C   0  0  0  0  0  0  0  0  0  0  0  0
    9.7942   -1.2607    0.0000 H   0  0  0  0  0  0  0  0  0  0  0  0
   10.6603   -2.3807    0.0000 H   0  0  0  0  0  0  0  0  0  0  0  0
   10.1707    0.0282    0.0000 H   0  0  0  0  0  0  0  0  0  0  0  0
    8.5991   -2.9507    0.0000 H   0  0  0  0  0  0  0  0  0  0  0  0
   12.6002   -1.2607    0.0000 H   0  0  0  0  0  0  0  0  0  0  0  0
   10.0021   -2.7607    0.0000 H   0  0  0  0  0  0  0  0  0  0  0  0
   10.6603    0.2393    0.0000 H   0  0  0  0  0  0  0  0  0  0  0  0
    8.5991   -5.1907    0.0000 H   0  0  0  0  0  0  0  0  0  0  0  0
   10.3872    1.2584    0.0000 H   0  0  0  0  0  0  0  0  0  0  0  0
    6.5380   -2.7607    0.0000 H   0  0  0  0  0  0  0  0  0  0  0  0
    7.4040   -3.8807    0.0000 H   0  0  0  0  0  0  0  0  0  0  0  0
    5.1350   -5.1907    0.0000 H   0  0  0  0  0  0  0  0  0  0  0  0
    5.1350   -2.9507    0.0000 H   0  0  0  0  0  0  0  0  0  0  0  0
   10.0021   -5.3807    0.0000 H   0  0  0  0  0  0  0  0  0  0  0  0
   10.0072    1.2585    0.0000 H   0  0  0  0  0  0  0  0  0  0  0  0
   10.8681   -4.2607    0.0000 H   0  0  0  0  0  0  0  0  0  0  0  0
   16.0643   -1.2607    0.0000 H   0  0  0  0  0  0  0  0  0  0  0  0
   11.5072    3.1983    0.0000 H   0  0  0  0  0  0  0  0  0  0  0  0
    6.5380   -5.3807    0.0000 H   0  0  0  0  0  0  0  0  0  0  0  0
    8.8872    2.1244    0.0000 H   0  0  0  0  0  0  0  0  0  0  0  0
   12.5307   -2.5456    0.0000 H   0  0  0  0  0  0  0  0  0  0  0  0
   13.3278   -2.5456    0.0000 H   0  0  0  0  0  0  0  0  0  0  0  0
   15.8564    0.6193    0.0000 H   0  0  0  0  0  0  0  0  0  0  0  0
   14.6613   -1.4507    0.0000 H   0  0  0  0  0  0  0  0  0  0  0  0
   15.8564    0.2393    0.0000 H   0  0  0  0  0  0  0  0  0  0  0  0
   18.1254    1.5493    0.0000 H   0  0  0  0  0  0  0  0  0  0  0  0
   16.7224    1.7393    0.0000 H   0  0  0  0  0  0  0  0  0  0  0  0
   16.9303   -2.3807    0.0000 H   0  0  0  0  0  0  0  0  0  0  0  0
    9.0772    3.5274    0.0000 H   0  0  0  0  0  0  0  0  0  0  0  0
   18.1254   -0.6907    0.0000 H   0  0  0  0  0  0  0  0  0  0  0  0
   16.9303   -2.7607    0.0000 H   0  0  0  0  0  0  0  0  0  0  0  0
   14.9904   -3.8807    0.0000 H   0  0  0  0  0  0  0  0  0  0  0  0
    4.8059   -5.7607    0.0000 H   0  0  0  0  0  0  0  0  0  0  0  0
   11.4092   -4.4881    0.0000 H   0  0  0  0  0  0  0  0  0  0  0  0
   11.8078   -5.1783    0.0000 H   0  0  0  0  0  0  0  0  0  0  0  0
    6.5380   -1.7607    0.0000 H   0  0  0  0  0  0  0  0  0  0  0  0
    5.3905   -5.9630    0.0000 H   0  0  0  0  0  0  0  0  0  0  0  0
    5.7890   -6.6533    0.0000 H   0  0  0  0  0  0  0  0  0  0  0  0
   12.7798    2.4493    0.0000 H   0  0  0  0  0  0  0  0  0  0  0  0
   12.0895    2.0508    0.0000 H   0  0  0  0  0  0  0  0  0  0  0  0
   11.7341   -3.3807    0.0000 H   0  0  0  0  0  0  0  0  0  0  0  0
    9.0212   -0.0337    0.0000 H   0  0  0  0  0  0  0  0  0  0  0  0
    3.4030   -5.9507    0.0000 H   0  0  0  0  0  0  0  0  0  0  0  0
   19.8574    1.5493    0.0000 H   0  0  0  0  0  0  0  0  0  0  0  0
    7.8872    2.1245    0.0000 H   0  0  0  0  0  0  0  0  0  0  0  0
    7.7331   -5.6907    0.0000 H   0  0  0  0  0  0  0  0  0  0  0  0
    2.8660   -7.2607    0.0000 H   0  0  0  0  0  0  0  0  0  0  0  0
   14.9904    1.1193    0.0000 H   0  0  0  0  0  0  0  0  0  0  0  0
   19.6020   -0.6783    0.0000 H   0  0  0  0  0  0  0  0  0  0  0  0
   19.2035    0.0119    0.0000 H   0  0  0  0  0  0  0  0  0  0  0  0
   20.1865    1.7393    0.0000 H   0  0  0  0  0  0  0  0  0  0  0  0
    4.8059   -8.3807    0.0000 H   0  0  0  0  0  0  0  0  0  0  0  0
    3.7321   -3.3807    0.0000 H   0  0  0  0  0  0  0  0  0  0  0  0
    5.6719   -7.2607    0.0000 H   0  0  0  0  0  0  0  0  0  0  0  0
    8.9282   -6.3807    0.0000 H   0  0  0  0  0  0  0  0  0  0  0  0
   10.0072    4.7225    0.0000 H   0  0  0  0  0  0  0  0  0  0  0  0
    8.5772    0.9294    0.0000 H   0  0  0  0  0  0  0  0  0  0  0  0
   14.9167   -4.4630    0.0000 H   0  0  0  0  0  0  0  0  0  0  0  0
   15.3153   -5.1533    0.0000 H   0  0  0  0  0  0  0  0  0  0  0  0
   21.5895    1.5493    0.0000 H   0  0  0  0  0  0  0  0  0  0  0  0
   21.5895   -0.6907    0.0000 H   0  0  0  0  0  0  0  0  0  0  0  0
   20.1865   -0.8807    0.0000 H   0  0  0  0  0  0  0  0  0  0  0  0
   17.7963    2.7393    0.0000 H   0  0  0  0  0  0  0  0  0  0  0  0
   17.7963   -1.8807    0.0000 H   0  0  0  0  0  0  0  0  0  0  0  0
    8.8872    5.5885    0.0000 H   0  0  0  0  0  0  0  0  0  0  0  0
   17.7963   -3.2607    0.0000 H   0  0  0  0  0  0  0  0  0  0  0  0
   10.3872    4.7225    0.0000 H   0  0  0  0  0  0  0  0  0  0  0  0
    6.2131   -7.4881    0.0000 H   0  0  0  0  0  0  0  0  0  0  0  0
    6.6116   -8.1783    0.0000 H   0  0  0  0  0  0  0  0  0  0  0  0
   11.7341   -6.3807    0.0000 H   0  0  0  0  0  0  0  0  0  0  0  0
    6.8671   -7.1907    0.0000 H   0  0  0  0  0  0  0  0  0  0  0  0
   12.3872    4.0643    0.0000 H   0  0  0  0  0  0  0  0  0  0  0  0
   20.1129   -1.4630    0.0000 H   0  0  0  0  0  0  0  0  0  0  0  0
   20.5114   -2.1533    0.0000 H   0  0  0  0  0  0  0  0  0  0  0  0
    2.0000   -6.3807    0.0000 H   0  0  0  0  0  0  0  0  0  0  0  0
    9.4785    7.7209    0.0000 H   0  0  0  0  0  0  0  0  0  0  0  0
    2.5369   -8.6907    0.0000 H   0  0  0  0  0  0  0  0  0  0  0  0
   19.5284   -1.8807    0.0000 H   0  0  0  0  0  0  0  0  0  0  0  0
   21.2604    2.7393    0.0000 H   0  0  0  0  0  0  0  0  0  0  0  0
    3.7321   -9.3807    0.0000 H   0  0  0  0  0  0  0  0  0  0  0  0
    4.5150   -0.5707    0.0000 H   0  0  0  0  0  0  0  0  0  0  0  0
    5.1350    0.0493    0.0000 H   0  0  0  0  0  0  0  0  0  0  0  0
    5.7550   -0.5707    0.0000 H   0  0  0  0  0  0  0  0  0  0  0  0
   11.3049    6.7361    0.0000 H   0  0  0  0  0  0  0  0  0  0  0  0
   10.6146    6.3375    0.0000 H   0  0  0  0  0  0  0  0  0  0  0  0
   16.3933   -5.6907    0.0000 H   0  0  0  0  0  0  0  0  0  0  0  0
   22.9925    1.1193    0.0000 H   0  0  0  0  0  0  0  0  0  0  0  0
   22.9925   -0.2607    0.0000 H   0  0  0  0  0  0  0  0  0  0  0  0
    7.6603    4.7034    0.0000 H   0  0  0  0  0  0  0  0  0  0  0  0
    8.5072    4.9304    0.0000 H   0  0  0  0  0  0  0  0  0  0  0  0
    8.7341    4.0834    0.0000 H   0  0  0  0  0  0  0  0  0  0  0  0
   16.0833    3.4663    0.0000 H   0  0  0  0  0  0  0  0  0  0  0  0
   16.9303    3.2393    0.0000 H   0  0  0  0  0  0  0  0  0  0  0  0
   16.7033    2.3924    0.0000 H   0  0  0  0  0  0  0  0  0  0  0  0
    7.8872    6.6624    0.0000 H   0  0  0  0  0  0  0  0  0  0  0  0
   11.8172    4.3934    0.0000 H   0  0  0  0  0  0  0  0  0  0  0  0
    8.0222    7.5410    0.0000 H   0  0  0  0  0  0  0  0  0  0  0  0
    6.5380   -9.3807    0.0000 H   0  0  0  0  0  0  0  0  0  0  0  0
   10.7855    7.0538    0.0000 H   0  0  0  0  0  0  0  0  0  0  0  0
   21.5895   -2.6907    0.0000 H   0  0  0  0  0  0  0  0  0  0  0  0
   12.5072    6.6624    0.0000 H   0  0  0  0  0  0  0  0  0  0  0  0
    7.6139    8.9057    0.0000 H   0  0  0  0  0  0  0  0  0  0  0  0
    7.5374    9.7792    0.0000 H   0  0  0  0  0  0  0  0  0  0  0  0
    8.4109    9.8556    0.0000 H   0  0  0  0  0  0  0  0  0  0  0  0
  1 51  1  0  0  0  0
  1 56  1  0  0  0  0
  2 55  1  0  0  0  0
  2 57  1  0  0  0  0
  3 54  1  0  0  0  0
  3 61  1  0  0  0  0
  4 57  1  0  0  0  0
  4 59  1  0  0  0  0
  5 56  1  0  0  0  0
  5 66  1  0  0  0  0
  6 61  1  0  0  0  0
  6 69  1  0  0  0  0
  7 67  1  0  0  0  0
  7 74  1  0  0  0  0
  8 71  1  0  0  0  0
  8 73  1  0  0  0  0
  9 68  1  0  0  0  0
  9 78  1  0  0  0  0
 10 62  1  0  0  0  0
 10 82  1  0  0  0  0
 11 74  1  0  0  0  0
 11 79  1  0  0  0  0
 12 73  1  0  0  0  0
 12 81  1  0  0  0  0
 13 52  1  0  0  0  0
 13153  1  0  0  0  0
 14 53  1  0  0  0  0
 14154  1  0  0  0  0
 15 75  1  0  0  0  0
 15 87  1  0  0  0  0
 16 58  1  0  0  0  0
 16158  1  0  0  0  0
 17 78  1  0  0  0  0
 17 93  1  0  0  0  0
 18 63  1  0  0  0  0
 18165  1  0  0  0  0
 19 64  1  0  0  0  0
 19167  1  0  0  0  0
 20 65  1  0  0  0  0
 20169  1  0  0  0  0
 21 82  1  0  0  0  0
 21 92  1  0  0  0  0
 22 76  1  0  0  0  0
 22175  1  0  0  0  0
 23 77  1  0  0  0  0
 23176  1  0  0  0  0
 24 87  1  0  0  0  0
 24 97  1  0  0  0  0
 25 80  1  0  0  0  0
 25178  1  0  0  0  0
 26 83  1  0  0  0  0
 26182  1  0  0  0  0
 27 84  1  0  0  0  0
 27183  1  0  0  0  0
 28 85  1  0  0  0  0
 28184  1  0  0  0  0
 29 86  1  0  0  0  0
 29187  1  0  0  0  0
 30 88  1  0  0  0  0
 30189  1  0  0  0  0
 31 89  1  0  0  0  0
 31190  1  0  0  0  0
 32 90  1  0  0  0  0
 32191  1  0  0  0  0
 33 91  1  0  0  0  0
 33192  1  0  0  0  0
 34 94  1  0  0  0  0
 34198  1  0  0  0  0
 35 95  1  0  0  0  0
 35199  1  0  0  0  0
 36 96  1  0  0  0  0
 36200  1  0  0  0  0
 37 98  1  0  0  0  0
 37207  1  0  0  0  0
 38100  1  0  0  0  0
 38208  1  0  0  0  0
 39 99  2  0  0  0  0
 40102  1  0  0  0  0
 40210  1  0  0  0  0
 41101  2  0  0  0  0
 42104  1  0  0  0  0
 42212  1  0  0  0  0
 43103  2  0  0  0  0
 44107  1  0  0  0  0
 44213  1  0  0  0  0
 45110  2  0  0  0  0
 46111  2  0  0  0  0
 47 60  1  0  0  0  0
 47 99  1  0  0  0  0
 47148  1  0  0  0  0
 48 70  1  0  0  0  0
 48101  1  0  0  0  0
 48157  1  0  0  0  0
 49 72  1  0  0  0  0
 49103  1  0  0  0  0
 49160  1  0  0  0  0
 50105  1  0  0  0  0
 50111  1  0  0  0  0
 50209  1  0  0  0  0
 51 52  1  0  0  0  0
 51 53  1  0  0  0  0
 51113  1  0  0  0  0
 52 55  1  0  0  0  0
 52114  1  0  0  0  0
 53 57  1  0  0  0  0
 53115  1  0  0  0  0
 54 56  1  0  0  0  0
 54 58  1  0  0  0  0
 54116  1  0  0  0  0
 55 71  1  0  0  0  0
 55117  1  0  0  0  0
 56118  1  0  0  0  0
 57119  1  0  0  0  0
 58 64  1  0  0  0  0
 58120  1  0  0  0  0
 59 65  1  0  0  0  0
 59 68  1  0  0  0  0
 59121  1  0  0  0  0
 60 61  1  0  0  0  0
 60 63  1  0  0  0  0
 60122  1  0  0  0  0
 61123  1  0  0  0  0
 62 63  1  0  0  0  0
 62 69  1  0  0  0  0
 62124  1  0  0  0  0
 63125  1  0  0  0  0
 64 66  1  0  0  0  0
 64126  1  0  0  0  0
 65 70  1  0  0  0  0
 65127  1  0  0  0  0
 66 83  1  0  0  0  0
 66128  1  0  0  0  0
 67 73  1  0  0  0  0
 67 77  1  0  0  0  0
 67129  1  0  0  0  0
 68 85  1  0  0  0  0
 68130  1  0  0  0  0
 69 84  1  0  0  0  0
 69131  1  0  0  0  0
 70 78  1  0  0  0  0
 70132  1  0  0  0  0
 71133  1  0  0  0  0
 71134  1  0  0  0  0
 72 74  1  0  0  0  0
 72 76  1  0  0  0  0
 72135  1  0  0  0  0
 73136  1  0  0  0  0
 74137  1  0  0  0  0
 75 76  1  0  0  0  0
 75 79  1  0  0  0  0
 75138  1  0  0  0  0
 76139  1  0  0  0  0
 77 80  1  0  0  0  0
 77140  1  0  0  0  0
 78141  1  0  0  0  0
 79 89  1  0  0  0  0
 79142  1  0  0  0  0
 80 81  1  0  0  0  0
 80143  1  0  0  0  0
 81 94  1  0  0  0  0
 81144  1  0  0  0  0
 82 86  1  0  0  0  0
 82145  1  0  0  0  0
 83146  1  0  0  0  0
 83147  1  0  0  0  0
 84149  1  0  0  0  0
 84150  1  0  0  0  0
 85151  1  0  0  0  0
 85152  1  0  0  0  0
 86 88  1  0  0  0  0
 86155  1  0  0  0  0
 87 90  1  0  0  0  0
 87156  1  0  0  0  0
 88 91  1  0  0  0  0
 88159  1  0  0  0  0
 89161  1  0  0  0  0
 89162  1  0  0  0  0
 90 95  1  0  0  0  0
 90163  1  0  0  0  0
 91 92  1  0  0  0  0
 91164  1  0  0  0  0
 92102  1  0  0  0  0
 92166  1  0  0  0  0
 93 98  1  0  0  0  0
 93100  1  0  0  0  0
 93168  1  0  0  0  0
 94170  1  0  0  0  0
 94171  1  0  0  0  0
 95 96  1  0  0  0  0
 95172  1  0  0  0  0
 96 97  1  0  0  0  0
 96173  1  0  0  0  0
 97104  1  0  0  0  0
 97174  1  0  0  0  0
 98105  1  0  0  0  0
 98177  1  0  0  0  0
 99106  1  0  0  0  0
100107  1  0  0  0  0
100179  1  0  0  0  0
101108  1  0  0  0  0
102180  1  0  0  0  0
102181  1  0  0  0  0
103109  1  0  0  0  0
104185  1  0  0  0  0
104186  1  0  0  0  0
105110  1  0  0  0  0
105188  1  0  0  0  0
106193  1  0  0  0  0
106194  1  0  0  0  0
106195  1  0  0  0  0
107196  1  0  0  0  0
107197  1  0  0  0  0
108201  1  0  0  0  0
108202  1  0  0  0  0
108203  1  0  0  0  0
109204  1  0  0  0  0
109205  1  0  0  0  0
109206  1  0  0  0  0
110211  1  0  0  0  0
111112  1  0  0  0  0
112214  1  0  0  0  0
112215  1  0  0  0  0
112216  1  0  0  0  0
M  END
> <PUBCHEM_BONDANNOTATIONS>
51  1  3
56  1  3
62  10  3
82  10  3
52  13  3
53  14  3
75  15  3
87  15  3
58  16  3
78  17  3
93  17  3
63  18  3
64  19  3
65  20  3
76  22  3
77  23  3
80  25  3
86  29  3
54  3  3
61  3  3
88  30  3
90  32  3
91  33  3
95  35  3
96  36  3
98  37  3
100  38  3
57  4  3
59  4  3
60  47  3
70  48  3
72  49  3
105  50  3
55  71  3
66  83  3
68  85  3
69  84  3
67  7  3
74  7  3
79  89  3
73  8  3
81  94  3
92  102  3
97  104  3

$$$$
