4115460
  Marvin  12310707193D          

148148  0  0  1  0            999 V2000
    4.9347   -0.4270    0.8048 O   0  0  0  0  0  0  0  0  0  0  0  0
    2.6513   -2.7872    3.0298 O   0  0  0  0  0  0  0  0  0  0  0  0
    6.5233   -0.1073   -2.6193 O   0  0  0  0  0  0  0  0  0  0  0  0
   -1.4929   -3.8894    3.7773 O   0  0  0  0  0  0  0  0  0  0  0  0
    6.1778    1.0802   -6.3016 O   0  0  0  0  0  0  0  0  0  0  0  0
    4.6047   -2.6025   -6.2689 O   0  0  0  0  0  0  0  0  0  0  0  0
   -1.8675   -0.5666    5.5177 O   0  0  0  0  0  0  0  0  0  0  0  0
    4.1851   -6.2036   -2.0282 O   0  0  0  0  0  0  0  0  0  0  0  0
   -1.1854   -7.6533   -0.2119 O   0  0  0  0  0  0  0  0  0  0  0  0
    2.5114   -5.1842   -2.7588 O   0  0  0  0  0  0  0  0  0  0  0  0
    4.0272    1.2212   -9.1369 O   0  0  0  0  0  0  0  0  0  0  0  0
    2.8943   -0.4650   -9.5218 O   0  0  0  0  0  0  0  0  0  0  0  0
   -3.0093    3.4655    5.1281 O   0  0  0  0  0  0  0  0  0  0  0  0
   -7.9398    3.6503    6.7443 O   0  0  0  0  0  0  0  0  0  0  0  0
   -6.7949    0.7516    3.7221 O   0  0  0  0  0  0  0  0  0  0  0  0
    2.0597   -1.9790    1.0764 N   0  0  0  0  0  0  0  0  0  0  0  0
    3.8505   -0.9774   -1.0119 N   0  0  0  0  0  0  0  0  0  0  0  0
    4.6212   -0.0882   -3.7113 N   0  0  0  0  0  0  0  0  0  0  0  0
   -0.4034   -2.9761    2.0984 N   0  0  0  0  0  0  0  0  0  0  0  0
   -1.6371   -0.6985    3.3254 N   0  0  0  0  0  0  0  0  0  0  0  0
    4.2512    0.0594   -6.5887 N   0  0  0  0  0  0  0  0  0  0  0  0
   -2.2455    2.0127    3.6783 N   0  0  0  0  0  0  0  0  0  0  0  0
    0.6477   -6.9401   -1.0238 N   0  0  0  0  0  0  0  0  0  0  0  0
   -5.1630    2.0291    3.2896 N   0  0  0  0  0  0  0  0  0  0  0  0
   -8.4233    3.0513    3.9163 N   0  0  0  0  0  0  0  0  0  0  0  0
    2.6637   -0.7138    1.0787 C   0  0  2  0  0  0  0  0  0  0  0  0
    1.5648    0.3144    0.6858 C   0  0  0  0  0  0  0  0  0  0  0  0
    1.9090    1.8297    0.8092 C   0  0  1  0  0  0  0  0  0  0  0  0
    4.8854   -1.5160   -1.7978 C   0  0  1  0  0  0  0  0  0  0  0  0
    4.7500    1.0750   -4.4834 C   0  0  2  0  0  0  0  0  0  0  0  0
    0.7727   -3.7435    2.0718 C   0  0  2  0  0  0  0  0  0  0  0  0
    3.4386    1.9065   -4.3706 C   0  0  0  0  0  0  0  0  0  0  0  0
    3.8706   -0.6973    0.2599 C   0  0  0  0  0  0  0  0  0  0  0  0
    2.9997    2.3676   -2.9459 C   0  0  1  0  0  0  0  0  0  0  0  0
   -2.3294   -1.8791    3.0250 C   0  0  1  0  0  0  0  0  0  0  0  0
   -3.1814   -1.6769    1.7332 C   0  0  0  0  0  0  0  0  0  0  0  0
    1.8906   -2.8067    2.0691 C   0  0  0  0  0  0  0  0  0  0  0  0
    4.3901   -2.8310   -2.4669 C   0  0  0  0  0  0  0  0  0  0  0  0
   -4.0845   -2.8667    1.2731 C   0  0  2  0  0  0  0  0  0  0  0  0
    0.8004   -4.7369    0.8757 C   0  0  0  0  0  0  0  0  0  0  0  0
    5.3778   -0.5246   -2.7469 C   0  0  0  0  0  0  0  0  0  0  0  0
    0.6338    2.6857    0.6049 C   0  0  0  0  0  0  0  0  0  0  0  0
    2.6671    2.2426    2.1010 C   0  0  0  0  0  0  0  0  0  0  0  0
   -1.3713   -2.9756    2.9703 C   0  0  0  0  0  0  0  0  0  0  0  0
    5.0909    0.7292   -5.8557 C   0  0  0  0  0  0  0  0  0  0  0  0
    4.1050    3.1704   -2.2016 C   0  0  0  0  0  0  0  0  0  0  0  0
    1.6227    3.0991   -2.9911 C   0  0  0  0  0  0  0  0  0  0  0  0
    3.9830   -3.9442   -1.4642 C   0  0  0  0  0  0  0  0  0  0  0  0
   -0.3238   -5.8108    0.8830 C   0  0  0  0  0  0  0  0  0  0  0  0
   -4.7538   -2.5865   -0.1006 C   0  0  0  0  0  0  0  0  0  0  0  0
   -5.1598   -3.2821    2.3142 C   0  0  0  0  0  0  0  0  0  0  0  0
    4.4830   -0.6346   -7.7813 C   0  0  1  0  0  0  0  0  0  0  0  0
    4.1213   -2.1345   -7.5317 C   0  0  1  0  0  0  0  0  0  0  0  0
   -1.5942   -0.0380    4.4469 C   0  0  0  0  0  0  0  0  0  0  0  0
   -0.2847   -6.8293   -0.1507 C   0  0  0  0  0  0  0  0  0  0  0  0
    3.5447   -5.1631   -2.1067 C   0  0  0  0  0  0  0  0  0  0  0  0
   -1.2550    1.3678    4.4259 C   0  0  0  0  0  0  0  0  0  0  0  0
    3.7720    0.0554   -8.8493 C   0  0  0  0  0  0  0  0  0  0  0  0
    4.6688   -3.1039   -8.6047 C   0  0  0  0  0  0  0  0  0  0  0  0
   -4.3147    3.1437    3.2440 C   0  0  1  0  0  0  0  0  0  0  0  0
   -3.1346    2.8738    4.0618 C   0  0  0  0  0  0  0  0  0  0  0  0
   -4.0537    3.5733    1.7705 C   0  0  0  0  0  0  0  0  0  0  0  0
   -3.4029    4.9094    1.7217 C   0  0  0  0  0  0  0  0  0  0  0  0
   -7.1270    2.8591    4.5844 C   0  0  2  0  0  0  0  0  0  0  0  0
   -6.3369    1.8800    3.8414 C   0  0  0  0  0  0  0  0  0  0  0  0
   -7.2771    2.5578    6.1042 C   0  0  1  0  0  0  0  0  0  0  0  0
   -1.9969    5.0186    1.7416 C   0  0  0  0  0  0  0  0  0  0  0  0
   -4.1668    6.0992    1.7529 C   0  0  0  0  0  0  0  0  0  0  0  0
   -5.9443    2.3461    6.8649 C   0  0  0  0  0  0  0  0  0  0  0  0
   -1.3572    6.2682    1.7859 C   0  0  0  0  0  0  0  0  0  0  0  0
   -3.5372    7.3563    1.8096 C   0  0  0  0  0  0  0  0  0  0  0  0
   -2.1327    7.4398    1.8239 C   0  0  0  0  0  0  0  0  0  0  0  0
    2.9380   -0.4633    2.1095 H   0  0  0  0  0  0  0  0  0  0  0  0
    1.2306    0.1139   -0.3385 H   0  0  0  0  0  0  0  0  0  0  0  0
    0.6969    0.1226    1.3266 H   0  0  0  0  0  0  0  0  0  0  0  0
    2.5778    2.0657   -0.0140 H   0  0  0  0  0  0  0  0  0  0  0  0
    5.7262   -1.8239   -1.1618 H   0  0  0  0  0  0  0  0  0  0  0  0
    5.5519    1.7136   -4.0952 H   0  0  0  0  0  0  0  0  0  0  0  0
    0.8497   -4.3648    2.9731 H   0  0  0  0  0  0  0  0  0  0  0  0
    2.6131    1.3241   -4.7938 H   0  0  0  0  0  0  0  0  0  0  0  0
    3.5471    2.7970   -4.9976 H   0  0  0  0  0  0  0  0  0  0  0  0
    1.6639   -2.2282    0.2660 H   0  0  0  0  0  0  0  0  0  0  0  0
    2.8407    1.4602   -2.3546 H   0  0  0  0  0  0  0  0  0  0  0  0
   -3.0549   -2.0657    3.8246 H   0  0  0  0  0  0  0  0  0  0  0  0
   -2.5036   -1.4152    0.9140 H   0  0  0  0  0  0  0  0  0  0  0  0
   -3.8251   -0.8026    1.8779 H   0  0  0  0  0  0  0  0  0  0  0  0
    3.0299   -0.8617   -1.4468 H   0  0  0  0  0  0  0  0  0  0  0  0
    5.1892   -3.2238   -3.1038 H   0  0  0  0  0  0  0  0  0  0  0  0
    3.5360   -2.6119   -3.1158 H   0  0  0  0  0  0  0  0  0  0  0  0
   -3.4367   -3.7350    1.1216 H   0  0  0  0  0  0  0  0  0  0  0  0
    1.7665   -5.2516    0.8926 H   0  0  0  0  0  0  0  0  0  0  0  0
    0.7379   -4.1853   -0.0671 H   0  0  0  0  0  0  0  0  0  0  0  0
    3.8606   -0.6015   -3.8930 H   0  0  0  0  0  0  0  0  0  0  0  0
   -0.4857   -2.3505    1.4070 H   0  0  0  0  0  0  0  0  0  0  0  0
   -0.1115    2.4011    1.3474 H   0  0  0  0  0  0  0  0  0  0  0  0
    0.8455    3.7529    0.7010 H   0  0  0  0  0  0  0  0  0  0  0  0
    0.1941    2.5277   -0.3799 H   0  0  0  0  0  0  0  0  0  0  0  0
    2.6981    3.3261    2.2306 H   0  0  0  0  0  0  0  0  0  0  0  0
    3.7054    1.9076    2.0543 H   0  0  0  0  0  0  0  0  0  0  0  0
    2.2026    1.8068    2.9867 H   0  0  0  0  0  0  0  0  0  0  0  0
    4.4880    3.9801   -2.8230 H   0  0  0  0  0  0  0  0  0  0  0  0
    4.9367    2.5193   -1.9231 H   0  0  0  0  0  0  0  0  0  0  0  0
    3.7420    3.6132   -1.2742 H   0  0  0  0  0  0  0  0  0  0  0  0
    1.5608    3.9249   -2.2807 H   0  0  0  0  0  0  0  0  0  0  0  0
    0.8148    2.4029   -2.7540 H   0  0  0  0  0  0  0  0  0  0  0  0
    1.3967    3.5140   -3.9752 H   0  0  0  0  0  0  0  0  0  0  0  0
    3.1675   -3.5943   -0.8307 H   0  0  0  0  0  0  0  0  0  0  0  0
    4.8283   -4.1463   -0.7998 H   0  0  0  0  0  0  0  0  0  0  0  0
   -0.3110   -6.3230    1.8489 H   0  0  0  0  0  0  0  0  0  0  0  0
   -1.2841   -5.2954    0.7996 H   0  0  0  0  0  0  0  0  0  0  0  0
   -1.1772   -0.3081    2.6098 H   0  0  0  0  0  0  0  0  0  0  0  0
   -4.0026   -2.3861   -0.8666 H   0  0  0  0  0  0  0  0  0  0  0  0
   -5.4253   -1.7267   -0.0446 H   0  0  0  0  0  0  0  0  0  0  0  0
   -5.3335   -3.4492   -0.4376 H   0  0  0  0  0  0  0  0  0  0  0  0
   -4.7060   -3.6006    3.2525 H   0  0  0  0  0  0  0  0  0  0  0  0
   -5.8433   -2.4561    2.5227 H   0  0  0  0  0  0  0  0  0  0  0  0
   -5.7456   -4.1306    1.9543 H   0  0  0  0  0  0  0  0  0  0  0  0
    3.3780   -0.0025   -6.2588 H   0  0  0  0  0  0  0  0  0  0  0  0
    5.5433   -0.6074   -8.0559 H   0  0  0  0  0  0  0  0  0  0  0  0
    3.0335   -2.2447   -7.4862 H   0  0  0  0  0  0  0  0  0  0  0  0
   -0.2865    1.5142    3.9457 H   0  0  0  0  0  0  0  0  0  0  0  0
   -1.1615    1.7656    5.4424 H   0  0  0  0  0  0  0  0  0  0  0  0
    4.3515   -4.1262   -8.3909 H   0  0  0  0  0  0  0  0  0  0  0  0
    5.7607   -3.0810   -8.6160 H   0  0  0  0  0  0  0  0  0  0  0  0
    4.3072   -2.8378   -9.5985 H   0  0  0  0  0  0  0  0  0  0  0  0
   -4.7962    4.0173    3.6795 H   0  0  0  0  0  0  0  0  0  0  0  0
   -2.2888    1.7520    2.7810 H   0  0  0  0  0  0  0  0  0  0  0  0
   -5.0025    3.6164    1.2250 H   0  0  0  0  0  0  0  0  0  0  0  0
   -3.4617    2.8187    1.2445 H   0  0  0  0  0  0  0  0  0  0  0  0
    1.3734   -6.3517   -1.0099 H   0  0  0  0  0  0  0  0  0  0  0  0
    0.6116   -7.6078   -1.6776 H   0  0  0  0  0  0  0  0  0  0  0  0
    5.5771   -2.4826   -6.2966 H   0  0  0  0  0  0  0  0  0  0  0  0
   -4.8298    1.2681    2.8577 H   0  0  0  0  0  0  0  0  0  0  0  0
    4.9470   -6.2274   -1.5874 H   0  0  0  0  0  0  0  0  0  0  0  0
   -6.7100    3.8616    4.5447 H   0  0  0  0  0  0  0  0  0  0  0  0
    4.6395    1.6731   -8.6940 H   0  0  0  0  0  0  0  0  0  0  0  0
   -7.8983    1.6690    6.2389 H   0  0  0  0  0  0  0  0  0  0  0  0
   -1.4269    4.1805    1.7488 H   0  0  0  0  0  0  0  0  0  0  0  0
   -5.1895    6.0596    1.7549 H   0  0  0  0  0  0  0  0  0  0  0  0
   -5.4038    1.4790    6.4808 H   0  0  0  0  0  0  0  0  0  0  0  0
   -6.1324    2.1725    7.9264 H   0  0  0  0  0  0  0  0  0  0  0  0
   -5.3006    3.2231    6.7737 H   0  0  0  0  0  0  0  0  0  0  0  0
   -8.2244    3.3463    2.9566 H   0  0  0  0  0  0  0  0  0  0  0  0
   -8.8946    2.1466    3.8626 H   0  0  0  0  0  0  0  0  0  0  0  0
   -0.3364    6.3192    1.8012 H   0  0  0  0  0  0  0  0  0  0  0  0
   -4.1005    8.2079    1.8484 H   0  0  0  0  0  0  0  0  0  0  0  0
   -1.6728    8.3507    1.8673 H   0  0  0  0  0  0  0  0  0  0  0  0
   -8.7600    3.8058    6.2318 H   0  0  0  0  0  0  0  0  0  0  0  0
  1 33  2  0  0  0  0
  2 37  2  0  0  0  0
  3 41  2  0  0  0  0
  4 44  2  0  0  0  0
  5 45  2  0  0  0  0
  6 53  1  0  0  0  0
  6132  1  0  0  0  0
  7 54  2  0  0  0  0
  8 56  1  0  0  0  0
  8134  1  0  0  0  0
  9 55  2  0  0  0  0
 10 56  2  0  0  0  0
 11 58  1  0  0  0  0
 11136  1  0  0  0  0
 12 58  2  0  0  0  0
 13 61  2  0  0  0  0
 14 66  1  0  0  0  0
 14148  1  0  0  0  0
 15 65  2  0  0  0  0
 16 26  1  0  0  0  0
 16 37  1  0  0  0  0
 16 82  1  0  0  0  0
 17 29  1  0  0  0  0
 17 33  1  0  0  0  0
 17 87  1  0  0  0  0
 18 30  1  0  0  0  0
 18 41  1  0  0  0  0
 18 93  1  0  0  0  0
 19 31  1  0  0  0  0
 19 44  1  0  0  0  0
 19 94  1  0  0  0  0
 20 35  1  0  0  0  0
 20 54  1  0  0  0  0
 20111  1  0  0  0  0
 21 45  1  0  0  0  0
 21 52  1  0  0  0  0
 21118  1  0  0  0  0
 22 57  1  0  0  0  0
 22 61  1  0  0  0  0
 22127  1  0  0  0  0
 23 55  1  0  0  0  0
 23130  1  0  0  0  0
 23131  1  0  0  0  0
 24 60  1  0  0  0  0
 24 65  1  0  0  0  0
 24133  1  0  0  0  0
 25 64  1  0  0  0  0
 25143  1  0  0  0  0
 25144  1  0  0  0  0
 26 27  1  0  0  0  0
 26 33  1  0  0  0  0
 26 73  1  0  0  0  0
 27 28  1  0  0  0  0
 27 74  1  0  0  0  0
 27 75  1  0  0  0  0
 28 42  1  0  0  0  0
 28 43  1  0  0  0  0
 28 76  1  0  0  0  0
 29 38  1  0  0  0  0
 29 41  1  0  0  0  0
 29 77  1  0  0  0  0
 30 32  1  0  0  0  0
 30 45  1  0  0  0  0
 30 78  1  0  0  0  0
 31 37  1  0  0  0  0
 31 40  1  0  0  0  0
 31 79  1  0  0  0  0
 32 34  1  0  0  0  0
 32 80  1  0  0  0  0
 32 81  1  0  0  0  0
 34 46  1  0  0  0  0
 34 47  1  0  0  0  0
 34 83  1  0  0  0  0
 35 36  1  0  0  0  0
 35 44  1  0  0  0  0
 35 84  1  0  0  0  0
 36 39  1  0  0  0  0
 36 85  1  0  0  0  0
 36 86  1  0  0  0  0
 38 48  1  0  0  0  0
 38 88  1  0  0  0  0
 38 89  1  0  0  0  0
 39 50  1  0  0  0  0
 39 51  1  0  0  0  0
 39 90  1  0  0  0  0
 40 49  1  0  0  0  0
 40 91  1  0  0  0  0
 40 92  1  0  0  0  0
 42 95  1  0  0  0  0
 42 96  1  0  0  0  0
 42 97  1  0  0  0  0
 43 98  1  0  0  0  0
 43 99  1  0  0  0  0
 43100  1  0  0  0  0
 46101  1  0  0  0  0
 46102  1  0  0  0  0
 46103  1  0  0  0  0
 47104  1  0  0  0  0
 47105  1  0  0  0  0
 47106  1  0  0  0  0
 48 56  1  0  0  0  0
 48107  1  0  0  0  0
 48108  1  0  0  0  0
 49 55  1  0  0  0  0
 49109  1  0  0  0  0
 49110  1  0  0  0  0
 50112  1  0  0  0  0
 50113  1  0  0  0  0
 50114  1  0  0  0  0
 51115  1  0  0  0  0
 51116  1  0  0  0  0
 51117  1  0  0  0  0
 52 53  1  0  0  0  0
 52 58  1  0  0  0  0
 52119  1  0  0  0  0
 53 59  1  0  0  0  0
 53120  1  0  0  0  0
 54 57  1  0  0  0  0
 57121  1  0  0  0  0
 57122  1  0  0  0  0
 59123  1  0  0  0  0
 59124  1  0  0  0  0
 59125  1  0  0  0  0
 60 61  1  0  0  0  0
 60 62  1  0  0  0  0
 60126  1  0  0  0  0
 62 63  1  0  0  0  0
 62128  1  0  0  0  0
 62129  1  0  0  0  0
 63 67  2  0  0  0  0
 63 68  1  0  0  0  0
 64 65  1  0  0  0  0
 64 66  1  0  0  0  0
 64135  1  0  0  0  0
 66 69  1  0  0  0  0
 66137  1  0  0  0  0
 67 70  1  0  0  0  0
 67138  1  0  0  0  0
 68 71  2  0  0  0  0
 68139  1  0  0  0  0
 69140  1  0  0  0  0
 69141  1  0  0  0  0
 69142  1  0  0  0  0
 70 72  2  0  0  0  0
 70145  1  0  0  0  0
 71 72  1  0  0  0  0
 71146  1  0  0  0  0
 72147  1  0  0  0  0
M  END
> <PUBCHEM_BONDANNOTATIONS>
66  14  3
52  21  3
64  25  3
26  27  3
29  38  3
30  32  3
31  40  3
35  36  3
53  6  3
60  62  3
63  67  8
63  68  8
67  70  8
68  71  8
70  72  8
71  72  8

$$$$
