5225514
  Marvin  12300716483D          

144 143  0  0  1  0            999 V2000
    1.4088   -4.6646   -1.8751 O   0  0  0  0  0  0  0  0  0  0  0  0
   -2.8508   -5.7411   -2.1540 O   0  0  0  0  0  0  0  0  0  0  0  0
   -0.8780   -0.6018   -0.4977 O   0  0  0  0  0  0  0  0  0  0  0  0
    3.8880   -0.4441   -1.7134 O   0  0  0  0  0  0  0  0  0  0  0  0
    2.6191   -0.5164   -5.1625 O   0  0  0  0  0  0  0  0  0  0  0  0
   -1.4310   -1.2455    3.2501 O   0  0  0  0  0  0  0  0  0  0  0  0
   -5.7574   -2.8110   -0.0069 O   0  0  0  0  0  0  0  0  0  0  0  0
   -1.6230    0.4968    6.2408 O   0  0  0  0  0  0  0  0  0  0  0  0
   -3.1435    2.7288    2.5092 O   0  0  0  0  0  0  0  0  0  0  0  0
   -4.8859   -0.4847   -2.1224 O   0  0  0  0  0  0  0  0  0  0  0  0
   -2.5502    6.1301    3.2655 O   0  0  0  0  0  0  0  0  0  0  0  0
   -0.5834    6.7684    3.2125 O   0  0  0  0  0  0  0  0  0  0  0  0
   -1.1697   -4.5109   -2.3672 N   0  0  0  0  0  0  0  0  0  0  0  0
    2.0878   -2.7614   -2.3501 N   0  0  0  0  0  0  0  0  0  0  0  0
    2.0184    0.5624   -1.5548 N   0  0  0  0  0  0  0  0  0  0  0  0
    0.4499    0.3085    0.9135 N   0  0  0  0  0  0  0  0  0  0  0  0
   -3.9674   -3.9273   -0.3372 N   0  0  0  0  0  0  0  0  0  0  0  0
   -0.7775    0.8327    3.4502 N   0  0  0  0  0  0  0  0  0  0  0  0
   -1.2496    3.5996    3.2167 N   0  0  0  0  0  0  0  0  0  0  0  0
    0.0414    5.0245   -4.2740 N   0  0  0  0  0  0  0  0  0  0  0  0
    5.2096   -1.4271    1.0936 N   0  0  0  0  0  0  0  0  0  0  0  0
   -2.4401   -6.1989    4.4319 N   0  0  0  0  0  0  0  0  0  0  0  0
   -3.6100   -1.1362    1.3348 N   0  0  0  0  0  0  0  0  0  0  0  0
    2.4617    6.0644   -1.0318 N   0  0  0  0  0  0  0  0  0  0  0  0
    0.1992    6.7547   -5.6157 N   0  0  0  0  0  0  0  0  0  0  0  0
   -0.7424    7.0698   -3.6576 N   0  0  0  0  0  0  0  0  0  0  0  0
    7.2218   -1.1501    2.0815 N   0  0  0  0  0  0  0  0  0  0  0  0
    7.0568   -1.6922   -0.0517 N   0  0  0  0  0  0  0  0  0  0  0  0
   -2.5998   -6.6561    6.5750 N   0  0  0  0  0  0  0  0  0  0  0  0
   -2.5274   -8.3440    5.1701 N   0  0  0  0  0  0  0  0  0  0  0  0
    3.4509    7.1360   -2.6669 N   0  0  0  0  0  0  0  0  0  0  0  0
    4.6589    5.7312   -1.4766 N   0  0  0  0  0  0  0  0  0  0  0  0
   -0.4083   -3.3302   -2.4562 C   0  0  2  0  0  0  0  0  0  0  0  0
   -0.9697   -2.6154   -3.7444 C   0  0  1  0  0  0  0  0  0  0  0  0
    0.6286    0.7726   -1.5025 C   0  0  2  0  0  0  0  0  0  0  0  0
   -2.6172   -4.3366   -0.3296 C   0  0  1  0  0  0  0  0  0  0  0  0
    0.3953   -0.6365    1.9655 C   0  0  1  0  0  0  0  0  0  0  0  0
    0.1700    2.2448   -1.6425 C   0  0  0  0  0  0  0  0  0  0  0  0
    1.0424   -3.5596   -2.2564 C   0  0  0  0  0  0  0  0  0  0  0  0
    2.2580   -1.5004   -2.9411 C   0  0  1  0  0  0  0  0  0  0  0  0
    1.8018   -0.7301    2.6182 C   0  0  0  0  0  0  0  0  0  0  0  0
   -2.4016   -5.4879    0.6960 C   0  0  0  0  0  0  0  0  0  0  0  0
   -2.1991   -4.8400   -1.6417 C   0  0  0  0  0  0  0  0  0  0  0  0
   -0.5318   -3.2747   -5.0757 C   0  0  0  0  0  0  0  0  0  0  0  0
   -2.4927   -2.3026   -3.7341 C   0  0  0  0  0  0  0  0  0  0  0  0
    0.0666    0.1396   -0.3151 C   0  0  0  0  0  0  0  0  0  0  0  0
    0.4896    2.9445   -2.9955 C   0  0  0  0  0  0  0  0  0  0  0  0
    2.7116   -0.4360   -2.0488 C   0  0  0  0  0  0  0  0  0  0  0  0
    2.8729   -1.3188    1.6610 C   0  0  0  0  0  0  0  0  0  0  0  0
   -2.4929   -5.1342    2.2030 C   0  0  0  0  0  0  0  0  0  0  0  0
   -0.6598   -0.3490    2.9279 C   0  0  0  0  0  0  0  0  0  0  0  0
    3.0237   -1.5749   -4.2918 C   0  0  0  0  0  0  0  0  0  0  0  0
   -1.9137    1.4468    3.9971 C   0  0  2  0  0  0  0  0  0  0  0  0
   -0.2869    4.2734   -3.1501 C   0  0  0  0  0  0  0  0  0  0  0  0
    4.3297   -1.1432    2.1345 C   0  0  0  0  0  0  0  0  0  0  0  0
   -2.3329   -6.4129    3.0618 C   0  0  0  0  0  0  0  0  0  0  0  0
   -4.5432   -2.7668   -0.1435 C   0  0  0  0  0  0  0  0  0  0  0  0
   -2.1370    2.6480    3.2036 C   0  0  0  0  0  0  0  0  0  0  0  0
   -3.9061   -1.4657   -0.0634 C   0  0  1  0  0  0  0  0  0  0  0  0
   -1.0322    4.6361    2.3029 C   0  0  2  0  0  0  0  0  0  0  0  0
   -1.7420    1.7160    5.5142 C   0  0  0  0  0  0  0  0  0  0  0  0
    0.4388    4.4932    1.8012 C   0  0  0  0  0  0  0  0  0  0  0  0
    0.8259    5.4459    0.6410 C   0  0  0  0  0  0  0  0  0  0  0  0
   -4.5519   -0.2397   -0.7611 C   0  0  0  0  0  0  0  0  0  0  0  0
   -1.3907    5.8896    2.9479 C   0  0  0  0  0  0  0  0  0  0  0  0
    2.2387    5.2164    0.0501 C   0  0  0  0  0  0  0  0  0  0  0  0
   -0.1787    6.2717   -4.4955 C   0  0  0  0  0  0  0  0  0  0  0  0
    6.4909   -1.4206    1.0626 C   0  0  0  0  0  0  0  0  0  0  0  0
   -2.5168   -7.0735    5.3703 C   0  0  0  0  0  0  0  0  0  0  0  0
    3.5267    6.2900   -1.7107 C   0  0  0  0  0  0  0  0  0  0  0  0
   -0.6460   -2.6853   -1.6219 H   0  0  0  0  0  0  0  0  0  0  0  0
   -0.6192   -1.5921   -3.7893 H   0  0  0  0  0  0  0  0  0  0  0  0
    0.1483    0.3457   -2.3844 H   0  0  0  0  0  0  0  0  0  0  0  0
   -1.9505   -3.5413    0.0038 H   0  0  0  0  0  0  0  0  0  0  0  0
    0.2040   -1.6413    1.5621 H   0  0  0  0  0  0  0  0  0  0  0  0
    0.5985    2.8203   -0.8283 H   0  0  0  0  0  0  0  0  0  0  0  0
   -0.9168    2.2726   -1.5024 H   0  0  0  0  0  0  0  0  0  0  0  0
   -0.9168   -5.1599   -2.9934 H   0  0  0  0  0  0  0  0  0  0  0  0
    1.3056   -1.1852   -3.2797 H   0  0  0  0  0  0  0  0  0  0  0  0
    1.7648   -1.3629    3.5099 H   0  0  0  0  0  0  0  0  0  0  0  0
    2.1046    0.2693    2.9459 H   0  0  0  0  0  0  0  0  0  0  0  0
   -3.1248   -6.2825    0.4809 H   0  0  0  0  0  0  0  0  0  0  0  0
   -1.4045   -5.9196    0.5472 H   0  0  0  0  0  0  0  0  0  0  0  0
    0.5468   -3.4264   -5.1011 H   0  0  0  0  0  0  0  0  0  0  0  0
   -1.0164   -4.2428   -5.2071 H   0  0  0  0  0  0  0  0  0  0  0  0
   -0.7910   -2.6387   -5.9250 H   0  0  0  0  0  0  0  0  0  0  0  0
   -3.1075   -3.2018   -3.7405 H   0  0  0  0  0  0  0  0  0  0  0  0
   -2.7338   -1.7261   -2.8452 H   0  0  0  0  0  0  0  0  0  0  0  0
   -2.7870   -1.6937   -4.5918 H   0  0  0  0  0  0  0  0  0  0  0  0
    2.8813   -3.1108   -1.9925 H   0  0  0  0  0  0  0  0  0  0  0  0
    2.5257    1.2201   -1.1223 H   0  0  0  0  0  0  0  0  0  0  0  0
    0.8625    1.1246    1.1091 H   0  0  0  0  0  0  0  0  0  0  0  0
    1.5647    3.1369   -3.0511 H   0  0  0  0  0  0  0  0  0  0  0  0
    0.2264    2.2941   -3.8339 H   0  0  0  0  0  0  0  0  0  0  0  0
    2.6674   -2.3800    1.4889 H   0  0  0  0  0  0  0  0  0  0  0  0
    2.7832   -0.8200    0.6991 H   0  0  0  0  0  0  0  0  0  0  0  0
   -1.7107   -4.4139    2.4596 H   0  0  0  0  0  0  0  0  0  0  0  0
   -3.4594   -4.6699    2.4151 H   0  0  0  0  0  0  0  0  0  0  0  0
    4.1059   -1.5280   -4.1612 H   0  0  0  0  0  0  0  0  0  0  0  0
    2.8004   -2.5106   -4.8085 H   0  0  0  0  0  0  0  0  0  0  0  0
   -4.5701   -4.6277   -0.4849 H   0  0  0  0  0  0  0  0  0  0  0  0
   -2.7962    0.7994    3.9121 H   0  0  0  0  0  0  0  0  0  0  0  0
   -1.3634    4.0794   -3.1640 H   0  0  0  0  0  0  0  0  0  0  0  0
   -0.0650    4.8715   -2.2724 H   0  0  0  0  0  0  0  0  0  0  0  0
   -0.0112    1.3681    3.4079 H   0  0  0  0  0  0  0  0  0  0  0  0
    4.5138   -1.7983    2.9892 H   0  0  0  0  0  0  0  0  0  0  0  0
    4.4898   -0.1062    2.4426 H   0  0  0  0  0  0  0  0  0  0  0  0
   -1.3582   -6.8687    2.8617 H   0  0  0  0  0  0  0  0  0  0  0  0
   -3.1101   -7.1208    2.7575 H   0  0  0  0  0  0  0  0  0  0  0  0
   -1.6765    4.5335    1.4216 H   0  0  0  0  0  0  0  0  0  0  0  0
   -2.9618   -1.5887   -0.5630 H   0  0  0  0  0  0  0  0  0  0  0  0
   -2.6127    2.2491    5.9037 H   0  0  0  0  0  0  0  0  0  0  0  0
   -0.8535    2.3178    5.7182 H   0  0  0  0  0  0  0  0  0  0  0  0
    1.1369    4.6434    2.6294 H   0  0  0  0  0  0  0  0  0  0  0  0
    0.5875    3.4657    1.4566 H   0  0  0  0  0  0  0  0  0  0  0  0
   -0.6297    3.5609    3.9159 H   0  0  0  0  0  0  0  0  0  0  0  0
    2.9532   -0.7540   -6.0516 H   0  0  0  0  0  0  0  0  0  0  0  0
    0.7684    6.4815    0.9813 H   0  0  0  0  0  0  0  0  0  0  0  0
    0.0705    5.3381   -0.1336 H   0  0  0  0  0  0  0  0  0  0  0  0
   -3.8467    0.5970   -0.7491 H   0  0  0  0  0  0  0  0  0  0  0  0
   -5.4545    0.0787   -0.2377 H   0  0  0  0  0  0  0  0  0  0  0  0
   -4.4887   -0.8733    1.7852 H   0  0  0  0  0  0  0  0  0  0  0  0
   -3.0203   -0.3000    1.3282 H   0  0  0  0  0  0  0  0  0  0  0  0
    2.9752    5.4118    0.8331 H   0  0  0  0  0  0  0  0  0  0  0  0
    2.3723    4.1843   -0.2793 H   0  0  0  0  0  0  0  0  0  0  0  0
   -1.5523    0.7659    7.1810 H   0  0  0  0  0  0  0  0  0  0  0  0
   -5.1569    0.3878   -2.4797 H   0  0  0  0  0  0  0  0  0  0  0  0
   -3.1911    5.5469    3.1107 H   0  0  0  0  0  0  0  0  0  0  0  0
    0.0894    7.6665   -5.7936 H   0  0  0  0  0  0  0  0  0  0  0  0
    0.5829    6.1998   -6.2631 H   0  0  0  0  0  0  0  0  0  0  0  0
   -1.0690    6.7438   -2.8434 H   0  0  0  0  0  0  0  0  0  0  0  0
   -0.8234    7.9813   -3.8494 H   0  0  0  0  0  0  0  0  0  0  0  0
    6.8208   -0.9087    2.8918 H   0  0  0  0  0  0  0  0  0  0  0  0
    8.1532   -1.1983    2.0235 H   0  0  0  0  0  0  0  0  0  0  0  0
    6.5427   -1.9143   -0.8014 H   0  0  0  0  0  0  0  0  0  0  0  0
    7.9886   -1.6604   -0.1255 H   0  0  0  0  0  0  0  0  0  0  0  0
   -2.6963   -7.2676    7.2763 H   0  0  0  0  0  0  0  0  0  0  0  0
   -2.5617   -5.7407    6.7616 H   0  0  0  0  0  0  0  0  0  0  0  0
   -2.4250   -8.6828    4.3036 H   0  0  0  0  0  0  0  0  0  0  0  0
   -2.6436   -8.9377    5.8829 H   0  0  0  0  0  0  0  0  0  0  0  0
    2.6289    7.5218   -2.8924 H   0  0  0  0  0  0  0  0  0  0  0  0
    4.2182    7.3753   -3.1456 H   0  0  0  0  0  0  0  0  0  0  0  0
    4.7292    5.0712   -0.8176 H   0  0  0  0  0  0  0  0  0  0  0  0
    5.4195    5.9828   -1.9590 H   0  0  0  0  0  0  0  0  0  0  0  0
  1 39  2  0  0  0  0
  2 43  2  0  0  0  0
  3 46  2  0  0  0  0
  4 48  2  0  0  0  0
  5 52  1  0  0  0  0
  5117  1  0  0  0  0
  6 51  2  0  0  0  0
  7 57  2  0  0  0  0
  8 61  1  0  0  0  0
  8126  1  0  0  0  0
  9 58  2  0  0  0  0
 10 64  1  0  0  0  0
 10127  1  0  0  0  0
 11 65  1  0  0  0  0
 11128  1  0  0  0  0
 12 65  2  0  0  0  0
 13 33  1  0  0  0  0
 13 43  1  0  0  0  0
 13 78  1  0  0  0  0
 14 39  1  0  0  0  0
 14 40  1  0  0  0  0
 14 90  1  0  0  0  0
 15 35  1  0  0  0  0
 15 48  1  0  0  0  0
 15 91  1  0  0  0  0
 16 37  1  0  0  0  0
 16 46  1  0  0  0  0
 16 92  1  0  0  0  0
 17 36  1  0  0  0  0
 17 57  1  0  0  0  0
 17101  1  0  0  0  0
 18 51  1  0  0  0  0
 18 53  1  0  0  0  0
 18105  1  0  0  0  0
 19 58  1  0  0  0  0
 19 60  1  0  0  0  0
 19116  1  0  0  0  0
 20 54  1  0  0  0  0
 20 67  2  0  0  0  0
 21 55  1  0  0  0  0
 21 68  2  0  0  0  0
 22 56  1  0  0  0  0
 22 69  2  0  0  0  0
 23 59  1  0  0  0  0
 23122  1  0  0  0  0
 23123  1  0  0  0  0
 24 66  1  0  0  0  0
 24 70  2  0  0  0  0
 25 67  1  0  0  0  0
 25129  1  0  0  0  0
 25130  1  0  0  0  0
 26 67  1  0  0  0  0
 26131  1  0  0  0  0
 26132  1  0  0  0  0
 27 68  1  0  0  0  0
 27133  1  0  0  0  0
 27134  1  0  0  0  0
 28 68  1  0  0  0  0
 28135  1  0  0  0  0
 28136  1  0  0  0  0
 29 69  1  0  0  0  0
 29137  1  0  0  0  0
 29138  1  0  0  0  0
 30 69  1  0  0  0  0
 30139  1  0  0  0  0
 30140  1  0  0  0  0
 31 70  1  0  0  0  0
 31141  1  0  0  0  0
 31142  1  0  0  0  0
 32 70  1  0  0  0  0
 32143  1  0  0  0  0
 32144  1  0  0  0  0
 33 34  1  0  0  0  0
 33 39  1  0  0  0  0
 33 71  1  0  0  0  0
 34 44  1  0  0  0  0
 34 45  1  0  0  0  0
 34 72  1  0  0  0  0
 35 38  1  0  0  0  0
 35 46  1  0  0  0  0
 35 73  1  0  0  0  0
 36 42  1  0  0  0  0
 36 43  1  0  0  0  0
 36 74  1  0  0  0  0
 37 41  1  0  0  0  0
 37 51  1  0  0  0  0
 37 75  1  0  0  0  0
 38 47  1  0  0  0  0
 38 76  1  0  0  0  0
 38 77  1  0  0  0  0
 40 48  1  0  0  0  0
 40 52  1  0  0  0  0
 40 79  1  0  0  0  0
 41 49  1  0  0  0  0
 41 80  1  0  0  0  0
 41 81  1  0  0  0  0
 42 50  1  0  0  0  0
 42 82  1  0  0  0  0
 42 83  1  0  0  0  0
 44 84  1  0  0  0  0
 44 85  1  0  0  0  0
 44 86  1  0  0  0  0
 45 87  1  0  0  0  0
 45 88  1  0  0  0  0
 45 89  1  0  0  0  0
 47 54  1  0  0  0  0
 47 93  1  0  0  0  0
 47 94  1  0  0  0  0
 49 55  1  0  0  0  0
 49 95  1  0  0  0  0
 49 96  1  0  0  0  0
 50 56  1  0  0  0  0
 50 97  1  0  0  0  0
 50 98  1  0  0  0  0
 52 99  1  0  0  0  0
 52100  1  0  0  0  0
 53 58  1  0  0  0  0
 53 61  1  0  0  0  0
 53102  1  0  0  0  0
 54103  1  0  0  0  0
 54104  1  0  0  0  0
 55106  1  0  0  0  0
 55107  1  0  0  0  0
 56108  1  0  0  0  0
 56109  1  0  0  0  0
 57 59  1  0  0  0  0
 59 64  1  0  0  0  0
 59111  1  0  0  0  0
 60 62  1  0  0  0  0
 60 65  1  0  0  0  0
 60110  1  0  0  0  0
 61112  1  0  0  0  0
 61113  1  0  0  0  0
 62 63  1  0  0  0  0
 62114  1  0  0  0  0
 62115  1  0  0  0  0
 63 66  1  0  0  0  0
 63118  1  0  0  0  0
 63119  1  0  0  0  0
 64120  1  0  0  0  0
 64121  1  0  0  0  0
 66124  1  0  0  0  0
 66125  1  0  0  0  0
M  END
> <PUBCHEM_BONDANNOTATIONS>
59  23  3
33  34  3
35  38  3
36  42  3
37  41  3
40  52  3
53  61  3
60  62  3

$$$$
