5492553
  Marvin  12300716493D          

176 179  0  0  1  0            999 V2000
   -4.5143    3.8528    1.0605 O   0  0  0  0  0  0  0  0  0  0  0  0
   -2.4604    5.2587    3.9356 O   0  0  0  0  0  0  0  0  0  0  0  0
   -4.7740    5.4919   -2.6980 O   0  0  0  0  0  0  0  0  0  0  0  0
    0.1761    6.6110    5.9916 O   0  0  0  0  0  0  0  0  0  0  0  0
   -2.2069    5.1133   -3.2336 O   0  0  0  0  0  0  0  0  0  0  0  0
    0.0720    0.5783   -2.9200 O   0  0  0  0  0  0  0  0  0  0  0  0
   -1.4271    8.3952    3.2981 O   0  0  0  0  0  0  0  0  0  0  0  0
   -0.4166    8.4424    1.4889 O   0  0  0  0  0  0  0  0  0  0  0  0
    2.2897    8.1649   -5.1585 O   0  0  0  0  0  0  0  0  0  0  0  0
   -0.1176   -1.3865   -5.5740 O   0  0  0  0  0  0  0  0  0  0  0  0
   -1.4605   -6.1593   -4.1827 O   0  0  0  0  0  0  0  0  0  0  0  0
    2.5234   -5.4312   -0.7360 O   0  0  0  0  0  0  0  0  0  0  0  0
    3.9086   -2.5207    1.7213 O   0  0  0  0  0  0  0  0  0  0  0  0
    3.0647   -2.6240    6.0335 O   0  0  0  0  0  0  0  0  0  0  0  0
    0.3496   -7.5535    5.5037 O   0  0  0  0  0  0  0  0  0  0  0  0
   -0.4267   -7.0756    3.6273 O   0  0  0  0  0  0  0  0  0  0  0  0
   -2.3650    3.8180    1.4149 N   0  0  0  0  0  0  0  0  0  0  0  0
   -0.9958    3.7525    4.5961 N   0  0  0  0  0  0  0  0  0  0  0  0
   -2.7095    3.7615   -1.6117 N   0  0  0  0  0  0  0  0  0  0  0  0
    0.3494    6.2868    3.8152 N   0  0  0  0  0  0  0  0  0  0  0  0
   -1.7044    1.7650   -3.4184 N   0  0  0  0  0  0  0  0  0  0  0  0
    4.3424   -0.3310    4.0556 N   0  0  0  0  0  0  0  0  0  0  0  0
   -0.9756   -1.7626   -3.6128 N   0  0  0  0  0  0  0  0  0  0  0  0
   -0.3498   -4.4313   -4.5352 N   0  0  0  0  0  0  0  0  0  0  0  0
    2.3275   -3.1884    0.5667 N   0  0  0  0  0  0  0  0  0  0  0  0
    0.7369   -5.4886   -1.7597 N   0  0  0  0  0  0  0  0  0  0  0  0
    2.7510   -3.2931    4.0445 N   0  0  0  0  0  0  0  0  0  0  0  0
   -1.8674   -2.2257    1.3521 N   0  0  0  0  0  0  0  0  0  0  0  0
    5.8137   -3.3344    5.5817 N   0  0  0  0  0  0  0  0  0  0  0  0
   -3.5037   -3.6918    1.6393 N   0  0  0  0  0  0  0  0  0  0  0  0
   -1.8862   -3.7090    3.0764 N   0  0  0  0  0  0  0  0  0  0  0  0
   -2.4656    3.2922    2.7375 C   0  0  1  0  0  0  0  0  0  0  0  0
   -1.7365    1.9610    2.4522 C   0  0  0  0  0  0  0  0  0  0  0  0
   -0.5871    2.3743    1.5110 C   0  0  0  0  0  0  0  0  0  0  0  0
   -1.0116    3.7731    1.0239 C   0  0  0  0  0  0  0  0  0  0  0  0
   -3.3974    4.1082    0.6212 C   0  0  0  0  0  0  0  0  0  0  0  0
   -1.9531    4.1522    3.8082 C   0  0  0  0  0  0  0  0  0  0  0  0
   -3.3673    4.6682   -0.7463 C   0  0  2  0  0  0  0  0  0  0  0  0
   -4.7592    5.1425   -1.3155 C   0  0  1  0  0  0  0  0  0  0  0  0
    0.0718    4.4100    5.2299 C   0  0  1  0  0  0  0  0  0  0  0  0
    1.4120    3.7327    4.7964 C   0  0  0  0  0  0  0  0  0  0  0  0
   -5.3786    6.3593   -0.5800 C   0  0  0  0  0  0  0  0  0  0  0  0
    1.5915    2.2165    5.0693 C   0  0  0  0  0  0  0  0  0  0  0  0
    0.1945    5.8532    5.0299 C   0  0  0  0  0  0  0  0  0  0  0  0
   -2.0730    4.0071   -2.7316 C   0  0  0  0  0  0  0  0  0  0  0  0
   -1.1514    3.0603   -3.3689 C   0  0  2  0  0  0  0  0  0  0  0  0
    2.8883    1.6582    4.4259 C   0  0  0  0  0  0  0  0  0  0  0  0
   -0.6372    3.4088   -4.8118 C   0  0  0  0  0  0  0  0  0  0  0  0
    3.1127    0.1574    4.6883 C   0  0  0  0  0  0  0  0  0  0  0  0
    0.7435    7.5331    3.3305 C   0  0  1  0  0  0  0  0  0  0  0  0
    0.1611    4.6621   -4.9567 C   0  0  0  0  0  0  0  0  0  0  0  0
   -1.1075    0.6125   -3.2544 C   0  0  0  0  0  0  0  0  0  0  0  0
   -1.8256   -0.6450   -3.4887 C   0  0  2  0  0  0  0  0  0  0  0  0
    1.9906    7.2893    2.4382 C   0  0  0  0  0  0  0  0  0  0  0  0
   -2.8978   -0.9269   -2.3890 C   0  0  0  0  0  0  0  0  0  0  0  0
   -0.4010    8.1442    2.6742 C   0  0  0  0  0  0  0  0  0  0  0  0
    1.5436    4.6877   -4.6554 C   0  0  0  0  0  0  0  0  0  0  0  0
   -0.4411    5.8694   -5.3879 C   0  0  0  0  0  0  0  0  0  0  0  0
   -3.6906   -2.1942   -2.3820 C   0  0  0  0  0  0  0  0  0  0  0  0
    2.2859    5.8819   -4.7400 C   0  0  0  0  0  0  0  0  0  0  0  0
    0.2847    7.0727   -5.4440 C   0  0  0  0  0  0  0  0  0  0  0  0
   -0.1931   -2.1161   -4.5911 C   0  0  0  0  0  0  0  0  0  0  0  0
    0.5661   -3.3698   -4.5089 C   0  0  2  0  0  0  0  0  0  0  0  0
    1.6524    7.0830   -5.1145 C   0  0  0  0  0  0  0  0  0  0  0  0
    1.5971   -3.5529   -5.6787 C   0  0  0  0  0  0  0  0  0  0  0  0
   -4.4947   -2.4705   -1.2490 C   0  0  0  0  0  0  0  0  0  0  0  0
   -3.6913   -3.1538   -3.4248 C   0  0  0  0  0  0  0  0  0  0  0  0
    2.5259   -4.7165   -5.7709 C   0  0  0  0  0  0  0  0  0  0  0  0
   -5.2212   -3.6708   -1.1333 C   0  0  0  0  0  0  0  0  0  0  0  0
   -4.4060   -4.3611   -3.3150 C   0  0  0  0  0  0  0  0  0  0  0  0
    1.1490   -3.7155    0.0099 C   0  0  1  0  0  0  0  0  0  0  0  0
   -0.7597   -5.3050   -3.6555 C   0  0  0  0  0  0  0  0  0  0  0  0
    0.4646   -2.4801   -0.6462 C   0  0  0  0  0  0  0  0  0  0  0  0
   -5.1644   -4.6246   -2.1625 C   0  0  0  0  0  0  0  0  0  0  0  0
   -0.5778   -5.4053   -2.2082 C   0  0  0  0  0  0  0  0  0  0  0  0
    0.1571   -1.2572    0.2575 C   0  0  0  0  0  0  0  0  0  0  0  0
    1.4469   -4.8618   -0.8621 C   0  0  0  0  0  0  0  0  0  0  0  0
    2.7582   -4.1060    2.8988 C   0  0  2  0  0  0  0  0  0  0  0  0
    3.3085   -4.8811   -6.9420 C   0  0  0  0  0  0  0  0  0  0  0  0
    2.6868   -5.6789   -4.7493 C   0  0  0  0  0  0  0  0  0  0  0  0
    2.9407   -3.2718    1.7097 C   0  0  0  0  0  0  0  0  0  0  0  0
    1.5490   -5.0772    3.0210 C   0  0  0  0  0  0  0  0  0  0  0  0
   -0.6688   -1.5331    1.5393 C   0  0  0  0  0  0  0  0  0  0  0  0
    4.1861   -5.9716   -7.0950 C   0  0  0  0  0  0  0  0  0  0  0  0
    3.5549   -6.7763   -4.8889 C   0  0  0  0  0  0  0  0  0  0  0  0
    1.5126   -5.9404    4.3171 C   0  0  0  0  0  0  0  0  0  0  0  0
    4.3039   -6.9242   -6.0681 C   0  0  0  0  0  0  0  0  0  0  0  0
    3.4629   -3.3485    5.1331 C   0  0  0  0  0  0  0  0  0  0  0  0
    0.4343   -6.8922    4.4744 C   0  0  0  0  0  0  0  0  0  0  0  0
    4.6194   -4.1700    5.4373 C   0  0  0  0  0  0  0  0  0  0  0  0
   -2.3904   -3.1933    2.0202 C   0  0  0  0  0  0  0  0  0  0  0  0
   -3.4773    3.0304    3.0667 H   0  0  0  0  0  0  0  0  0  0  0  0
   -2.4246    1.2853    1.9301 H   0  0  0  0  0  0  0  0  0  0  0  0
   -1.3973    1.4333    3.3454 H   0  0  0  0  0  0  0  0  0  0  0  0
    0.3733    2.4038    2.0293 H   0  0  0  0  0  0  0  0  0  0  0  0
   -0.5042    1.6809    0.6726 H   0  0  0  0  0  0  0  0  0  0  0  0
   -0.4351    4.5566    1.5229 H   0  0  0  0  0  0  0  0  0  0  0  0
   -0.7754    3.8827   -0.0331 H   0  0  0  0  0  0  0  0  0  0  0  0
   -2.7472    5.5675   -0.6635 H   0  0  0  0  0  0  0  0  0  0  0  0
   -0.9904    2.8298    4.7381 H   0  0  0  0  0  0  0  0  0  0  0  0
   -5.4618    4.3068   -1.2568 H   0  0  0  0  0  0  0  0  0  0  0  0
   -0.0607    4.2016    6.2966 H   0  0  0  0  0  0  0  0  0  0  0  0
   -2.6908    2.8700   -1.3278 H   0  0  0  0  0  0  0  0  0  0  0  0
    2.2468    4.2381    5.2941 H   0  0  0  0  0  0  0  0  0  0  0  0
    1.5473    3.8895    3.7216 H   0  0  0  0  0  0  0  0  0  0  0  0
   -4.7618    7.2490   -0.7230 H   0  0  0  0  0  0  0  0  0  0  0  0
   -6.3775    6.5709   -0.9672 H   0  0  0  0  0  0  0  0  0  0  0  0
   -5.4757    6.1874    0.4920 H   0  0  0  0  0  0  0  0  0  0  0  0
    1.6096    2.0493    6.1497 H   0  0  0  0  0  0  0  0  0  0  0  0
    0.7445    1.6576    4.6672 H   0  0  0  0  0  0  0  0  0  0  0  0
   -0.2773    3.0669   -2.7089 H   0  0  0  0  0  0  0  0  0  0  0  0
   -4.2014    6.2840   -2.7750 H   0  0  0  0  0  0  0  0  0  0  0  0
    2.8495    1.8109    3.3434 H   0  0  0  0  0  0  0  0  0  0  0  0
    3.7508    2.2098    4.8100 H   0  0  0  0  0  0  0  0  0  0  0  0
   -1.4979    3.4362   -5.4871 H   0  0  0  0  0  0  0  0  0  0  0  0
   -0.0219    2.5877   -5.1941 H   0  0  0  0  0  0  0  0  0  0  0  0
    0.2000    5.6472    3.1509 H   0  0  0  0  0  0  0  0  0  0  0  0
   -2.6135    1.7235   -3.6360 H   0  0  0  0  0  0  0  0  0  0  0  0
    2.2731   -0.4198    4.2960 H   0  0  0  0  0  0  0  0  0  0  0  0
    3.1899   -0.0163    5.7629 H   0  0  0  0  0  0  0  0  0  0  0  0
    1.0584    8.2068    4.1345 H   0  0  0  0  0  0  0  0  0  0  0  0
   -2.3738   -0.5431   -4.4320 H   0  0  0  0  0  0  0  0  0  0  0  0
    2.3665    8.2305    2.0330 H   0  0  0  0  0  0  0  0  0  0  0  0
    1.7601    6.6259    1.6000 H   0  0  0  0  0  0  0  0  0  0  0  0
    2.7984    6.8321    3.0152 H   0  0  0  0  0  0  0  0  0  0  0  0
   -3.6189   -0.1044   -2.3853 H   0  0  0  0  0  0  0  0  0  0  0  0
   -2.3826   -0.8838   -1.4276 H   0  0  0  0  0  0  0  0  0  0  0  0
    4.2695   -0.1370    3.0546 H   0  0  0  0  0  0  0  0  0  0  0  0
    5.1166    0.2299    4.4170 H   0  0  0  0  0  0  0  0  0  0  0  0
    2.0277    3.8324   -4.3711 H   0  0  0  0  0  0  0  0  0  0  0  0
   -1.4303    5.8939   -5.6477 H   0  0  0  0  0  0  0  0  0  0  0  0
   -0.9758   -2.3453   -2.8856 H   0  0  0  0  0  0  0  0  0  0  0  0
    3.2858    5.8725   -4.5236 H   0  0  0  0  0  0  0  0  0  0  0  0
   -0.1909    7.9359   -5.7202 H   0  0  0  0  0  0  0  0  0  0  0  0
    1.1409   -3.3503   -3.5810 H   0  0  0  0  0  0  0  0  0  0  0  0
    2.2410   -2.6677   -5.6954 H   0  0  0  0  0  0  0  0  0  0  0  0
    1.0237   -3.5432   -6.6124 H   0  0  0  0  0  0  0  0  0  0  0  0
   -1.4933    8.1991    4.1542 H   0  0  0  0  0  0  0  0  0  0  0  0
   -4.5512   -1.7989   -0.4784 H   0  0  0  0  0  0  0  0  0  0  0  0
   -3.1710   -3.0001   -4.2887 H   0  0  0  0  0  0  0  0  0  0  0  0
   -0.7368   -4.5402   -5.3811 H   0  0  0  0  0  0  0  0  0  0  0  0
    0.4465   -4.0828    0.7534 H   0  0  0  0  0  0  0  0  0  0  0  0
   -5.7833   -3.8548   -0.2991 H   0  0  0  0  0  0  0  0  0  0  0  0
   -4.3755   -5.0481   -4.0718 H   0  0  0  0  0  0  0  0  0  0  0  0
    3.1439    8.1979   -4.9487 H   0  0  0  0  0  0  0  0  0  0  0  0
    1.0638   -2.1336   -1.4929 H   0  0  0  0  0  0  0  0  0  0  0  0
   -0.5050   -2.7605   -1.0367 H   0  0  0  0  0  0  0  0  0  0  0  0
   -5.6774   -5.5046   -2.0740 H   0  0  0  0  0  0  0  0  0  0  0  0
   -1.1944   -4.6616   -1.7177 H   0  0  0  0  0  0  0  0  0  0  0  0
   -0.9991   -6.3519   -1.8554 H   0  0  0  0  0  0  0  0  0  0  0  0
    1.0966   -0.7798    0.5467 H   0  0  0  0  0  0  0  0  0  0  0  0
   -0.3629   -0.5144   -0.3488 H   0  0  0  0  0  0  0  0  0  0  0  0
    3.6294   -4.7620    2.8542 H   0  0  0  0  0  0  0  0  0  0  0  0
    2.7772   -2.6425   -0.0489 H   0  0  0  0  0  0  0  0  0  0  0  0
    3.2460   -4.2048   -7.7077 H   0  0  0  0  0  0  0  0  0  0  0  0
    2.1765   -5.5958   -3.8792 H   0  0  0  0  0  0  0  0  0  0  0  0
    1.2027   -6.1792   -2.1872 H   0  0  0  0  0  0  0  0  0  0  0  0
    1.5501   -5.7540    2.1625 H   0  0  0  0  0  0  0  0  0  0  0  0
    0.6300   -4.4935    2.9981 H   0  0  0  0  0  0  0  0  0  0  0  0
   -0.9385   -0.5772    1.9702 H   0  0  0  0  0  0  0  0  0  0  0  0
   -0.0165   -2.0113    2.2720 H   0  0  0  0  0  0  0  0  0  0  0  0
    4.7366   -6.0737   -7.9506 H   0  0  0  0  0  0  0  0  0  0  0  0
    3.6414   -7.4622   -4.1352 H   0  0  0  0  0  0  0  0  0  0  0  0
    2.4579   -6.4831    4.3972 H   0  0  0  0  0  0  0  0  0  0  0  0
    1.4385   -5.2725    5.1791 H   0  0  0  0  0  0  0  0  0  0  0  0
    2.0988   -2.6208    4.0309 H   0  0  0  0  0  0  0  0  0  0  0  0
    4.9341   -7.7218   -6.1761 H   0  0  0  0  0  0  0  0  0  0  0  0
    4.4504   -4.7155    6.3680 H   0  0  0  0  0  0  0  0  0  0  0  0
    4.8469   -4.9169    4.6806 H   0  0  0  0  0  0  0  0  0  0  0  0
    6.5983   -3.9682    5.7475 H   0  0  0  0  0  0  0  0  0  0  0  0
    5.9796   -2.8913    4.6751 H   0  0  0  0  0  0  0  0  0  0  0  0
    0.9364   -7.4485    6.1532 H   0  0  0  0  0  0  0  0  0  0  0  0
   -3.8222   -4.4832    2.0259 H   0  0  0  0  0  0  0  0  0  0  0  0
   -4.0087   -3.2666    0.9825 H   0  0  0  0  0  0  0  0  0  0  0  0
   -2.2500   -4.4913    3.4405 H   0  0  0  0  0  0  0  0  0  0  0  0
   -1.1561   -3.3007    3.4958 H   0  0  0  0  0  0  0  0  0  0  0  0
  1 36  2  0  0  0  0
  2 37  2  0  0  0  0
 39  3  1  0  0  0  0
  3112  1  0  0  0  0
  4 44  2  0  0  0  0
  5 45  2  0  0  0  0
  6 52  2  0  0  0  0
  7 56  1  0  0  0  0
  7138  1  0  0  0  0
  8 56  2  0  0  0  0
  9 64  1  0  0  0  0
  9145  1  0  0  0  0
 10 62  2  0  0  0  0
 11 72  2  0  0  0  0
 12 77  2  0  0  0  0
 13 81  2  0  0  0  0
 14 88  2  0  0  0  0
 15 89  1  0  0  0  0
 15172  1  0  0  0  0
 16 89  2  0  0  0  0
 17 32  1  0  0  0  0
 17 35  1  0  0  0  0
 17 36  1  0  0  0  0
 18 37  1  0  0  0  0
 40 18  1  0  0  0  0
 18100  1  0  0  0  0
 38 19  1  0  0  0  0
 19 45  1  0  0  0  0
 19103  1  0  0  0  0
 20 44  1  0  0  0  0
 50 20  1  0  0  0  0
 20117  1  0  0  0  0
 46 21  1  0  0  0  0
 21 52  1  0  0  0  0
 21118  1  0  0  0  0
 22 49  1  0  0  0  0
 22128  1  0  0  0  0
 22129  1  0  0  0  0
 53 23  1  0  0  0  0
 23 62  1  0  0  0  0
 23132  1  0  0  0  0
 63 24  1  0  0  0  0
 24 72  1  0  0  0  0
 24141  1  0  0  0  0
 71 25  1  0  0  0  0
 25 81  1  0  0  0  0
 25154  1  0  0  0  0
 26 75  1  0  0  0  0
 26 77  1  0  0  0  0
 26157  1  0  0  0  0
 78 27  1  0  0  0  0
 27 88  1  0  0  0  0
 27166  1  0  0  0  0
 28 83  1  0  0  0  0
 28 91  2  0  0  0  0
 29 90  1  0  0  0  0
 29170  1  0  0  0  0
 29171  1  0  0  0  0
 30 91  1  0  0  0  0
 30173  1  0  0  0  0
 30174  1  0  0  0  0
 31 91  1  0  0  0  0
 31175  1  0  0  0  0
 31176  1  0  0  0  0
 32 33  1  0  0  0  0
 32 37  1  0  0  0  0
 32 92  1  0  0  0  0
 33 34  1  0  0  0  0
 33 93  1  0  0  0  0
 33 94  1  0  0  0  0
 34 35  1  0  0  0  0
 34 95  1  0  0  0  0
 34 96  1  0  0  0  0
 35 97  1  0  0  0  0
 35 98  1  0  0  0  0
 36 38  1  0  0  0  0
 38 39  1  0  0  0  0
 38 99  1  0  0  0  0
 39 42  1  0  0  0  0
 39101  1  0  0  0  0
 40 41  1  0  0  0  0
 40 44  1  0  0  0  0
 40102  1  0  0  0  0
 41 43  1  0  0  0  0
 41104  1  0  0  0  0
 41105  1  0  0  0  0
 42106  1  0  0  0  0
 42107  1  0  0  0  0
 42108  1  0  0  0  0
 43 47  1  0  0  0  0
 43109  1  0  0  0  0
 43110  1  0  0  0  0
 45 46  1  0  0  0  0
 46 48  1  0  0  0  0
 46111  1  0  0  0  0
 47 49  1  0  0  0  0
 47113  1  0  0  0  0
 47114  1  0  0  0  0
 48 51  1  0  0  0  0
 48115  1  0  0  0  0
 48116  1  0  0  0  0
 49119  1  0  0  0  0
 49120  1  0  0  0  0
 50 54  1  0  0  0  0
 50 56  1  0  0  0  0
 50121  1  0  0  0  0
 51 57  2  0  0  0  0
 51 58  1  0  0  0  0
 52 53  1  0  0  0  0
 53 55  1  0  0  0  0
 53122  1  0  0  0  0
 54123  1  0  0  0  0
 54124  1  0  0  0  0
 54125  1  0  0  0  0
 55 59  1  0  0  0  0
 55126  1  0  0  0  0
 55127  1  0  0  0  0
 57 60  1  0  0  0  0
 57130  1  0  0  0  0
 58 61  2  0  0  0  0
 58131  1  0  0  0  0
 59 66  2  0  0  0  0
 59 67  1  0  0  0  0
 60 64  2  0  0  0  0
 60133  1  0  0  0  0
 61 64  1  0  0  0  0
 61134  1  0  0  0  0
 62 63  1  0  0  0  0
 63 65  1  0  0  0  0
 63135  1  0  0  0  0
 65 68  1  0  0  0  0
 65136  1  0  0  0  0
 65137  1  0  0  0  0
 66 69  1  0  0  0  0
 66139  1  0  0  0  0
 67 70  2  0  0  0  0
 67140  1  0  0  0  0
 68 79  2  0  0  0  0
 68 80  1  0  0  0  0
 69 74  2  0  0  0  0
 69143  1  0  0  0  0
 70 74  1  0  0  0  0
 70144  1  0  0  0  0
 71 73  1  0  0  0  0
 71 77  1  0  0  0  0
 71142  1  0  0  0  0
 72 75  1  0  0  0  0
 73 76  1  0  0  0  0
 73146  1  0  0  0  0
 73147  1  0  0  0  0
 74148  1  0  0  0  0
 75149  1  0  0  0  0
 75150  1  0  0  0  0
 76 83  1  0  0  0  0
 76151  1  0  0  0  0
 76152  1  0  0  0  0
 78 81  1  0  0  0  0
 78 82  1  0  0  0  0
 78153  1  0  0  0  0
 79 84  1  0  0  0  0
 79155  1  0  0  0  0
 80 85  2  0  0  0  0
 80156  1  0  0  0  0
 82 86  1  0  0  0  0
 82158  1  0  0  0  0
 82159  1  0  0  0  0
 83160  1  0  0  0  0
 83161  1  0  0  0  0
 84 87  2  0  0  0  0
 84162  1  0  0  0  0
 85 87  1  0  0  0  0
 85163  1  0  0  0  0
 86 89  1  0  0  0  0
 86164  1  0  0  0  0
 86165  1  0  0  0  0
 87167  1  0  0  0  0
 88 90  1  0  0  0  0
 90168  1  0  0  0  0
 90169  1  0  0  0  0
M  END
> <PUBCHEM_BONDANNOTATIONS>
40  18  6
38  19  6
50  20  5
46  21  5
53  23  5
63  24  5
71  25  5
78  27  6
39  3  6
32  37  6
51  57  8
51  58  8
57  60  8
58  61  8
59  66  8
59  67  8
60  64  8
61  64  8
66  69  8
67  70  8
68  79  8
68  80  8
69  74  8
70  74  8
79  84  8
80  85  8
84  87  8
85  87  8

$$$$
