5748425
  Marvin  12300718183D          

227 229  0  0  1  0            999 V2000
    2.5104    4.2361   -2.4883 S   0  0  0  0  0  0  0  0  0  0  0  0
   -1.7464   -2.3617    4.2015 O   0  0  0  0  0  0  0  0  0  0  0  0
   -2.7196    1.8814   -0.4780 O   0  0  0  0  0  0  0  0  0  0  0  0
   -3.6879   -1.0506    7.0822 O   0  0  0  0  0  0  0  0  0  0  0  0
    1.1366    0.0204   -1.1245 O   0  0  0  0  0  0  0  0  0  0  0  0
   -5.0783   -2.4625    0.4467 O   0  0  0  0  0  0  0  0  0  0  0  0
   -5.0704   -0.2940    9.3456 O   0  0  0  0  0  0  0  0  0  0  0  0
    1.8951   -3.2311   -4.8923 O   0  0  0  0  0  0  0  0  0  0  0  0
    2.5826    0.1196   -8.6431 O   0  0  0  0  0  0  0  0  0  0  0  0
   -7.5247   -1.4822    9.3029 O   0  0  0  0  0  0  0  0  0  0  0  0
    6.5468    1.4562   -5.3064 O   0  0  0  0  0  0  0  0  0  0  0  0
   -6.0474   -1.5461    5.0758 O   0  0  0  0  0  0  0  0  0  0  0  0
   -6.9240   -4.0078    8.5474 O   0  0  0  0  0  0  0  0  0  0  0  0
    5.8879    3.7728   -1.9874 O   0  0  0  0  0  0  0  0  0  0  0  0
    7.3388    6.9383   -9.0234 O   0  0  0  0  0  0  0  0  0  0  0  0
    5.9841    1.7752    1.5941 O   0  0  0  0  0  0  0  0  0  0  0  0
   -5.2226   -7.3090    8.0273 O   0  0  0  0  0  0  0  0  0  0  0  0
   -5.1589   -5.8598    9.5062 O   0  0  0  0  0  0  0  0  0  0  0  0
    7.2131   -3.3867   -1.4910 O   0  0  0  0  0  0  0  0  0  0  0  0
    5.9836   -2.7228   -3.0271 O   0  0  0  0  0  0  0  0  0  0  0  0
   -2.9605   -0.5558    4.4164 N   0  0  0  0  0  0  0  0  0  0  0  0
   -0.5034    0.0347   -2.5832 N   0  0  0  0  0  0  0  0  0  0  0  0
   -2.8834   -0.2579   -0.9286 N   0  0  0  0  0  0  0  0  0  0  0  0
   -3.4304   -1.5793    1.5780 N   0  0  0  0  0  0  0  0  0  0  0  0
   -3.1208    1.0277    7.5527 N   0  0  0  0  0  0  0  0  0  0  0  0
    1.9193   -1.2194   -4.0689 N   0  0  0  0  0  0  0  0  0  0  0  0
   -6.4523    1.1895    8.4928 N   0  0  0  0  0  0  0  0  0  0  0  0
   -2.2440   -8.6158    3.7098 N   0  0  0  0  0  0  0  0  0  0  0  0
    3.1490   -0.4148   -6.5892 N   0  0  0  0  0  0  0  0  0  0  0  0
   -7.8879   -1.6084    7.1440 N   0  0  0  0  0  0  0  0  0  0  0  0
    5.1862    1.4656   -6.8261 N   0  0  0  0  0  0  0  0  0  0  0  0
    7.1744   -5.9095   -7.7699 N   0  0  0  0  0  0  0  0  0  0  0  0
    5.0743    2.8241   -3.5965 N   0  0  0  0  0  0  0  0  0  0  0  0
   -9.6742    5.1265    4.0904 N   0  0  0  0  0  0  0  0  0  0  0  0
   -5.3677   -4.0794    6.9985 N   0  0  0  0  0  0  0  0  0  0  0  0
    6.0121    1.5678   -0.4705 N   0  0  0  0  0  0  0  0  0  0  0  0
    8.7512    1.8122    1.6673 N   0  0  0  0  0  0  0  0  0  0  0  0
   -2.2771   -0.0585    5.5641 C   0  0  1  0  0  0  0  0  0  0  0  0
   -1.7736    1.2832    4.9686 C   0  0  0  0  0  0  0  0  0  0  0  0
   -1.2008    1.1413   -2.0226 C   0  0  1  0  0  0  0  0  0  0  0  0
   -3.7981    0.4690    3.9316 C   0  0  0  0  0  0  0  0  0  0  0  0
   -2.8828    1.7048    3.9864 C   0  0  0  0  0  0  0  0  0  0  0  0
   -1.6721    1.9322   -3.2772 C   0  0  0  0  0  0  0  0  0  0  0  0
   -1.3962    0.9821   -4.4555 C   0  0  0  0  0  0  0  0  0  0  0  0
   -1.1673   -0.3636   -3.7554 C   0  0  0  0  0  0  0  0  0  0  0  0
   -3.5044   -2.3653    2.7434 C   0  0  2  0  0  0  0  0  0  0  0  0
   -2.7284   -1.7299    3.8249 C   0  0  0  0  0  0  0  0  0  0  0  0
   -4.1863   -0.5194   -0.4550 C   0  0  1  0  0  0  0  0  0  0  0  0
   -2.3011    0.9000   -1.0832 C   0  0  0  0  0  0  0  0  0  0  0  0
   -3.0839   -0.0275    6.7896 C   0  0  0  0  0  0  0  0  0  0  0  0
   -3.1460   -3.8464    2.3730 C   0  0  0  0  0  0  0  0  0  0  0  0
    0.6598   -0.4565   -2.1506 C   0  0  0  0  0  0  0  0  0  0  0  0
   -5.1345   -0.7340   -1.6857 C   0  0  0  0  0  0  0  0  0  0  0  0
   -4.2263   -1.5859    0.5421 C   0  0  0  0  0  0  0  0  0  0  0  0
   -3.3947   -4.9262    3.4575 C   0  0  0  0  0  0  0  0  0  0  0  0
    1.4392   -1.5411   -2.7721 C   0  0  2  0  0  0  0  0  0  0  0  0
   -5.4924    0.4820   -2.5926 C   0  0  1  0  0  0  0  0  0  0  0  0
   -2.8076   -6.3018    3.0495 C   0  0  0  0  0  0  0  0  0  0  0  0
   -4.0507    1.5554    8.4656 C   0  0  1  0  0  0  0  0  0  0  0  0
    2.5976   -2.1386   -1.9204 C   0  0  0  0  0  0  0  0  0  0  0  0
   -6.3261    0.0340   -3.8248 C   0  0  0  0  0  0  0  0  0  0  0  0
   -6.2107    1.6325   -1.8348 C   0  0  0  0  0  0  0  0  0  0  0  0
   -2.8733   -7.3708    4.1599 C   0  0  0  0  0  0  0  0  0  0  0  0
   -4.2934    3.0156    7.9837 C   0  0  0  0  0  0  0  0  0  0  0  0
   -5.2494    0.7717    8.7708 C   0  0  0  0  0  0  0  0  0  0  0  0
    2.1135   -2.0385   -5.0791 C   0  0  0  0  0  0  0  0  0  0  0  0
    2.4833   -1.6470   -6.4488 C   0  0  2  0  0  0  0  0  0  0  0  0
    3.2572   -2.7419   -7.2596 C   0  0  0  0  0  0  0  0  0  0  0  0
   -7.6778    0.5499    8.2237 C   0  0  1  0  0  0  0  0  0  0  0  0
    4.6709   -3.1223   -6.7381 C   0  0  0  0  0  0  0  0  0  0  0  0
   -8.2276    1.1892    6.9060 C   0  0  0  0  0  0  0  0  0  0  0  0
    5.3046   -4.2996   -7.5248 C   0  0  0  0  0  0  0  0  0  0  0  0
   -8.5543    2.7068    6.9054 C   0  0  0  0  0  0  0  0  0  0  0  0
    3.2491    0.3662   -7.6452 C   0  0  0  0  0  0  0  0  0  0  0  0
   -7.6818   -0.9189    8.2284 C   0  0  0  0  0  0  0  0  0  0  0  0
    4.0810    1.5738   -7.6707 C   0  0  2  0  0  0  0  0  0  0  0  0
   -8.9772    3.2155    5.5027 C   0  0  0  0  0  0  0  0  0  0  0  0
    6.6744   -4.7727   -6.9886 C   0  0  0  0  0  0  0  0  0  0  0  0
    4.6802    2.0074   -9.0503 C   0  0  0  0  0  0  0  0  0  0  0  0
   -7.4462   -2.8465    6.6534 C   0  0  1  0  0  0  0  0  0  0  0  0
   -9.3182    4.7202    5.4534 C   0  0  0  0  0  0  0  0  0  0  0  0
    5.4016    3.3181   -9.0390 C   0  0  0  0  0  0  0  0  0  0  0  0
    5.3634    1.6471   -5.5599 C   0  0  0  0  0  0  0  0  0  0  0  0
    4.4359    1.9438   -4.4644 C   0  0  2  0  0  0  0  0  0  0  0  0
   -7.0338   -2.5656    5.1775 C   0  0  0  0  0  0  0  0  0  0  0  0
   -6.5241   -3.6664    7.4424 C   0  0  0  0  0  0  0  0  0  0  0  0
    3.0261    2.5593   -4.7275 C   0  0  0  0  0  0  0  0  0  0  0  0
    6.8129    3.3885   -9.1224 C   0  0  0  0  0  0  0  0  0  0  0  0
    4.6857    4.5347   -8.9304 C   0  0  0  0  0  0  0  0  0  0  0  0
    6.3398    1.5063   -1.8306 C   0  0  2  0  0  0  0  0  0  0  0  0
    5.7346    2.6686   -2.4934 C   0  0  0  0  0  0  0  0  0  0  0  0
    2.1273    2.7717   -3.4830 C   0  0  0  0  0  0  0  0  0  0  0  0
    7.4842    4.6280   -9.1137 C   0  0  0  0  0  0  0  0  0  0  0  0
    5.3483    5.7761   -8.9239 C   0  0  0  0  0  0  0  0  0  0  0  0
    6.0893    0.0468   -2.3066 C   0  0  0  0  0  0  0  0  0  0  0  0
   -4.5321   -5.1532    7.3581 C   0  0  1  0  0  0  0  0  0  0  0  0
    6.7536    5.8257   -9.0204 C   0  0  0  0  0  0  0  0  0  0  0  0
    7.9331    2.6614    0.7884 C   0  0  1  0  0  0  0  0  0  0  0  0
    8.8083    3.1093   -0.4198 C   0  0  0  0  0  0  0  0  0  0  0  0
   10.0376    4.0447   -0.2242 C   0  0  1  0  0  0  0  0  0  0  0  0
    6.6489    1.9845    0.5862 C   0  0  0  0  0  0  0  0  0  0  0  0
    6.8349   -1.0919   -1.5505 C   0  0  0  0  0  0  0  0  0  0  0  0
   -3.1185   -4.6348    7.7267 C   0  0  0  0  0  0  0  0  0  0  0  0
   10.7516    4.2831   -1.5877 C   0  0  0  0  0  0  0  0  0  0  0  0
    9.6879    5.4004    0.4457 C   0  0  0  0  0  0  0  0  0  0  0  0
   -4.9969   -6.1416    8.3267 C   0  0  0  0  0  0  0  0  0  0  0  0
    6.6633   -2.4443   -2.0487 C   0  0  0  0  0  0  0  0  0  0  0  0
    1.9844    3.6637   -0.8597 C   0  0  0  0  0  0  0  0  0  0  0  0
   -1.3890   -0.6310    5.8536 H   0  0  0  0  0  0  0  0  0  0  0  0
   -0.8424    1.1108    4.4181 H   0  0  0  0  0  0  0  0  0  0  0  0
   -1.5578    2.0616    5.7027 H   0  0  0  0  0  0  0  0  0  0  0  0
   -0.5028    1.7922   -1.4911 H   0  0  0  0  0  0  0  0  0  0  0  0
   -4.6623    0.6155    4.5875 H   0  0  0  0  0  0  0  0  0  0  0  0
   -4.2118    0.3616    2.9304 H   0  0  0  0  0  0  0  0  0  0  0  0
   -2.4609    1.9243    3.0008 H   0  0  0  0  0  0  0  0  0  0  0  0
   -3.4285    2.5852    4.3353 H   0  0  0  0  0  0  0  0  0  0  0  0
   -1.1377    2.8760   -3.3972 H   0  0  0  0  0  0  0  0  0  0  0  0
   -2.7264    2.2123   -3.2615 H   0  0  0  0  0  0  0  0  0  0  0  0
   -2.2216    0.9333   -5.1690 H   0  0  0  0  0  0  0  0  0  0  0  0
   -0.4892    1.2818   -4.9905 H   0  0  0  0  0  0  0  0  0  0  0  0
   -2.1163   -0.8581   -3.5238 H   0  0  0  0  0  0  0  0  0  0  0  0
   -0.6421   -1.0366   -4.4335 H   0  0  0  0  0  0  0  0  0  0  0  0
   -4.5407   -2.3761    3.0915 H   0  0  0  0  0  0  0  0  0  0  0  0
   -4.5803    0.3258    0.1146 H   0  0  0  0  0  0  0  0  0  0  0  0
   -2.0996   -3.8670    2.0561 H   0  0  0  0  0  0  0  0  0  0  0  0
   -3.7192   -4.1882    1.5090 H   0  0  0  0  0  0  0  0  0  0  0  0
   -2.3977   -1.0034   -1.2173 H   0  0  0  0  0  0  0  0  0  0  0  0
   -2.7332   -0.9559    1.5498 H   0  0  0  0  0  0  0  0  0  0  0  0
   -4.6894   -1.5216   -2.3038 H   0  0  0  0  0  0  0  0  0  0  0  0
   -6.0975   -1.1251   -1.3454 H   0  0  0  0  0  0  0  0  0  0  0  0
   -4.4705   -5.0243    3.6322 H   0  0  0  0  0  0  0  0  0  0  0  0
   -2.9418   -4.6173    4.3993 H   0  0  0  0  0  0  0  0  0  0  0  0
    0.7186   -2.3628   -2.8301 H   0  0  0  0  0  0  0  0  0  0  0  0
   -4.5629    0.8815   -2.9940 H   0  0  0  0  0  0  0  0  0  0  0  0
   -2.3758    1.5814    7.4492 H   0  0  0  0  0  0  0  0  0  0  0  0
   -3.3389   -6.6698    2.1667 H   0  0  0  0  0  0  0  0  0  0  0  0
   -1.7575   -6.1729    2.7714 H   0  0  0  0  0  0  0  0  0  0  0  0
   -3.5080    1.6589    9.4108 H   0  0  0  0  0  0  0  0  0  0  0  0
    2.2467   -2.4689   -0.9416 H   0  0  0  0  0  0  0  0  0  0  0  0
    3.0734   -2.9906   -2.4097 H   0  0  0  0  0  0  0  0  0  0  0  0
    3.3546   -1.3881   -1.7392 H   0  0  0  0  0  0  0  0  0  0  0  0
    2.1139   -0.3179   -4.2259 H   0  0  0  0  0  0  0  0  0  0  0  0
   -5.7848   -0.7107   -4.4122 H   0  0  0  0  0  0  0  0  0  0  0  0
   -6.5367    0.8772   -4.4858 H   0  0  0  0  0  0  0  0  0  0  0  0
   -7.2783   -0.4026   -3.5157 H   0  0  0  0  0  0  0  0  0  0  0  0
   -6.4640    2.4513   -2.5106 H   0  0  0  0  0  0  0  0  0  0  0  0
   -7.1315    1.2757   -1.3686 H   0  0  0  0  0  0  0  0  0  0  0  0
   -5.5781    2.0608   -1.0571 H   0  0  0  0  0  0  0  0  0  0  0  0
   -3.9105   -7.5769    4.4307 H   0  0  0  0  0  0  0  0  0  0  0  0
   -2.3397   -7.0260    5.0480 H   0  0  0  0  0  0  0  0  0  0  0  0
   -4.7424    3.0325    6.9872 H   0  0  0  0  0  0  0  0  0  0  0  0
   -4.9532    3.5562    8.6653 H   0  0  0  0  0  0  0  0  0  0  0  0
   -3.3583    3.5810    7.9405 H   0  0  0  0  0  0  0  0  0  0  0  0
    1.5055   -1.5409   -6.9312 H   0  0  0  0  0  0  0  0  0  0  0  0
    3.3554   -2.4287   -8.3025 H   0  0  0  0  0  0  0  0  0  0  0  0
    2.6428   -3.6462   -7.2990 H   0  0  0  0  0  0  0  0  0  0  0  0
   -6.5077    2.1186    8.4225 H   0  0  0  0  0  0  0  0  0  0  0  0
   -8.3656    0.8662    9.0144 H   0  0  0  0  0  0  0  0  0  0  0  0
    5.3277   -2.2506   -6.8059 H   0  0  0  0  0  0  0  0  0  0  0  0
    4.6057   -3.4007   -5.6834 H   0  0  0  0  0  0  0  0  0  0  0  0
   -2.3527   -9.2989    4.4613 H   0  0  0  0  0  0  0  0  0  0  0  0
   -2.7843   -8.9552    2.9110 H   0  0  0  0  0  0  0  0  0  0  0  0
    3.6149   -0.1340   -5.8303 H   0  0  0  0  0  0  0  0  0  0  0  0
   -7.5118    0.9835    6.1030 H   0  0  0  0  0  0  0  0  0  0  0  0
   -9.1659    0.6940    6.6366 H   0  0  0  0  0  0  0  0  0  0  0  0
    5.4223   -4.0035   -8.5711 H   0  0  0  0  0  0  0  0  0  0  0  0
    4.6202   -5.1524   -7.4986 H   0  0  0  0  0  0  0  0  0  0  0  0
   -9.3612    2.8939    7.6198 H   0  0  0  0  0  0  0  0  0  0  0  0
   -7.6850    3.2807    7.2327 H   0  0  0  0  0  0  0  0  0  0  0  0
    3.4322    2.4016   -7.3869 H   0  0  0  0  0  0  0  0  0  0  0  0
   -9.8495    2.6496    5.1626 H   0  0  0  0  0  0  0  0  0  0  0  0
   -8.1639    3.0233    4.7966 H   0  0  0  0  0  0  0  0  0  0  0  0
    7.4067   -3.9647   -7.0426 H   0  0  0  0  0  0  0  0  0  0  0  0
    6.5856   -5.0932   -5.9485 H   0  0  0  0  0  0  0  0  0  0  0  0
    3.8897    2.0793   -9.8017 H   0  0  0  0  0  0  0  0  0  0  0  0
    5.3372    1.2083   -9.4099 H   0  0  0  0  0  0  0  0  0  0  0  0
   -8.4186   -1.1599    6.5204 H   0  0  0  0  0  0  0  0  0  0  0  0
    5.9595    1.1900   -7.2779 H   0  0  0  0  0  0  0  0  0  0  0  0
   -8.3549   -3.4505    6.5691 H   0  0  0  0  0  0  0  0  0  0  0  0
   -8.4599    5.3149    5.7722 H   0  0  0  0  0  0  0  0  0  0  0  0
  -10.1603    4.9405    6.1128 H   0  0  0  0  0  0  0  0  0  0  0  0
    4.2212    0.9845   -3.9988 H   0  0  0  0  0  0  0  0  0  0  0  0
    8.0980   -6.1505   -7.4048 H   0  0  0  0  0  0  0  0  0  0  0  0
    7.3070   -5.5842   -8.7301 H   0  0  0  0  0  0  0  0  0  0  0  0
   -6.6619   -3.4639    4.6805 H   0  0  0  0  0  0  0  0  0  0  0  0
   -7.8924   -2.2223    4.5938 H   0  0  0  0  0  0  0  0  0  0  0  0
    3.1124    3.5033   -5.2727 H   0  0  0  0  0  0  0  0  0  0  0  0
    2.4568    1.8728   -5.3548 H   0  0  0  0  0  0  0  0  0  0  0  0
    4.9889    3.7158   -3.8721 H   0  0  0  0  0  0  0  0  0  0  0  0
    7.3742    2.5364   -9.1858 H   0  0  0  0  0  0  0  0  0  0  0  0
    3.6651    4.5303   -8.8582 H   0  0  0  0  0  0  0  0  0  0  0  0
   -9.9443    6.1111    4.1293 H   0  0  0  0  0  0  0  0  0  0  0  0
  -10.5079    4.5969    3.8260 H   0  0  0  0  0  0  0  0  0  0  0  0
    7.3988    1.6112   -2.0325 H   0  0  0  0  0  0  0  0  0  0  0  0
    1.1027    2.9087   -3.8179 H   0  0  0  0  0  0  0  0  0  0  0  0
    2.1626    1.8676   -2.8763 H   0  0  0  0  0  0  0  0  0  0  0  0
   -5.0445   -3.5964    6.2655 H   0  0  0  0  0  0  0  0  0  0  0  0
    8.5058    4.6497   -9.1761 H   0  0  0  0  0  0  0  0  0  0  0  0
    4.8049    6.6398   -8.8514 H   0  0  0  0  0  0  0  0  0  0  0  0
    6.3608   -0.0548   -3.3560 H   0  0  0  0  0  0  0  0  0  0  0  0
    5.0263   -0.1322   -2.2239 H   0  0  0  0  0  0  0  0  0  0  0  0
   -4.4078   -5.6803    6.4074 H   0  0  0  0  0  0  0  0  0  0  0  0
    5.1533    1.2360   -0.2956 H   0  0  0  0  0  0  0  0  0  0  0  0
   -5.2699   -1.8796    5.5674 H   0  0  0  0  0  0  0  0  0  0  0  0
    7.6855    3.5640    1.3503 H   0  0  0  0  0  0  0  0  0  0  0  0
    9.1853    2.2007   -0.8968 H   0  0  0  0  0  0  0  0  0  0  0  0
    8.1687    3.6355   -1.1243 H   0  0  0  0  0  0  0  0  0  0  0  0
   10.7507    3.5285    0.4249 H   0  0  0  0  0  0  0  0  0  0  0  0
    6.5115   -1.0897   -0.5068 H   0  0  0  0  0  0  0  0  0  0  0  0
    7.9049   -0.8689   -1.5658 H   0  0  0  0  0  0  0  0  0  0  0  0
   -3.1595   -3.9709    8.5926 H   0  0  0  0  0  0  0  0  0  0  0  0
   -2.6733   -4.0824    6.8970 H   0  0  0  0  0  0  0  0  0  0  0  0
   -2.4429   -5.4622    7.9610 H   0  0  0  0  0  0  0  0  0  0  0  0
   11.0471    3.3386   -2.0501 H   0  0  0  0  0  0  0  0  0  0  0  0
   11.6569    4.8789   -1.4611 H   0  0  0  0  0  0  0  0  0  0  0  0
   10.0975    4.8064   -2.2900 H   0  0  0  0  0  0  0  0  0  0  0  0
   10.5780    6.0237    0.5471 H   0  0  0  0  0  0  0  0  0  0  0  0
    8.9489    5.9496   -0.1421 H   0  0  0  0  0  0  0  0  0  0  0  0
    9.2903    5.2564    1.4505 H   0  0  0  0  0  0  0  0  0  0  0  0
    9.0482    1.0047    1.1144 H   0  0  0  0  0  0  0  0  0  0  0  0
    9.5923    2.3382    1.9102 H   0  0  0  0  0  0  0  0  0  0  0  0
    8.2158    6.9888   -9.0889 H   0  0  0  0  0  0  0  0  0  0  0  0
    2.1925    4.4398   -0.1251 H   0  0  0  0  0  0  0  0  0  0  0  0
    2.5295    2.7607   -0.5810 H   0  0  0  0  0  0  0  0  0  0  0  0
    0.9149    3.4693   -0.8565 H   0  0  0  0  0  0  0  0  0  0  0  0
   -5.1010   -7.5986    7.2048 H   0  0  0  0  0  0  0  0  0  0  0  0
    7.7174   -3.2583   -0.7803 H   0  0  0  0  0  0  0  0  0  0  0  0
  1 92  1  0  0  0  0
  1108  1  0  0  0  0
  2 47  2  0  0  0  0
  3 49  2  0  0  0  0
  4 50  2  0  0  0  0
  5 52  2  0  0  0  0
  6 54  2  0  0  0  0
  7 65  2  0  0  0  0
  8 66  2  0  0  0  0
  9 74  2  0  0  0  0
 10 75  2  0  0  0  0
 11 83  2  0  0  0  0
 12 85  1  0  0  0  0
 12204  1  0  0  0  0
 13 86  2  0  0  0  0
 14 91  2  0  0  0  0
 15 97  1  0  0  0  0
 15222  1  0  0  0  0
 16101  2  0  0  0  0
 17106  1  0  0  0  0
 17226  1  0  0  0  0
 18106  2  0  0  0  0
 19107  1  0  0  0  0
 19227  1  0  0  0  0
 20107  2  0  0  0  0
 21 38  1  0  0  0  0
 21 41  1  0  0  0  0
 21 47  1  0  0  0  0
 22 40  1  0  0  0  0
 22 45  1  0  0  0  0
 22 52  1  0  0  0  0
 48 23  1  0  0  0  0
 23 49  1  0  0  0  0
 23127  1  0  0  0  0
 46 24  1  0  0  0  0
 24 54  1  0  0  0  0
 24128  1  0  0  0  0
 25 50  1  0  0  0  0
 59 25  1  0  0  0  0
 25135  1  0  0  0  0
 56 26  1  0  0  0  0
 26 66  1  0  0  0  0
 26142  1  0  0  0  0
 27 65  1  0  0  0  0
 69 27  1  0  0  0  0
 27157  1  0  0  0  0
 28 63  1  0  0  0  0
 28161  1  0  0  0  0
 28162  1  0  0  0  0
 67 29  1  0  0  0  0
 29 74  1  0  0  0  0
 29163  1  0  0  0  0
 30 75  1  0  0  0  0
 80 30  1  0  0  0  0
 30177  1  0  0  0  0
 76 31  1  0  0  0  0
 31 83  1  0  0  0  0
 31178  1  0  0  0  0
 32 78  1  0  0  0  0
 32183  1  0  0  0  0
 32184  1  0  0  0  0
 84 33  1  0  0  0  0
 33 91  1  0  0  0  0
 33189  1  0  0  0  0
 34 81  1  0  0  0  0
 34192  1  0  0  0  0
 34193  1  0  0  0  0
 35 86  1  0  0  0  0
 96 35  1  0  0  0  0
 35197  1  0  0  0  0
 90 36  1  0  0  0  0
 36101  1  0  0  0  0
 36203  1  0  0  0  0
 98 37  1  0  0  0  0
 37220  1  0  0  0  0
 37221  1  0  0  0  0
 38 39  1  0  0  0  0
 38 50  1  0  0  0  0
 38109  1  0  0  0  0
 39 42  1  0  0  0  0
 39110  1  0  0  0  0
 39111  1  0  0  0  0
 40 43  1  0  0  0  0
 40 49  1  0  0  0  0
 40112  1  0  0  0  0
 41 42  1  0  0  0  0
 41113  1  0  0  0  0
 41114  1  0  0  0  0
 42115  1  0  0  0  0
 42116  1  0  0  0  0
 43 44  1  0  0  0  0
 43117  1  0  0  0  0
 43118  1  0  0  0  0
 44 45  1  0  0  0  0
 44119  1  0  0  0  0
 44120  1  0  0  0  0
 45121  1  0  0  0  0
 45122  1  0  0  0  0
 46 47  1  0  0  0  0
 46 51  1  0  0  0  0
 46123  1  0  0  0  0
 48 53  1  0  0  0  0
 48 54  1  0  0  0  0
 48124  1  0  0  0  0
 51 55  1  0  0  0  0
 51125  1  0  0  0  0
 51126  1  0  0  0  0
 52 56  1  0  0  0  0
 53 57  1  0  0  0  0
 53129  1  0  0  0  0
 53130  1  0  0  0  0
 55 58  1  0  0  0  0
 55131  1  0  0  0  0
 55132  1  0  0  0  0
 56 60  1  0  0  0  0
 56133  1  0  0  0  0
 57 61  1  0  0  0  0
 57 62  1  0  0  0  0
 57134  1  0  0  0  0
 58 63  1  0  0  0  0
 58136  1  0  0  0  0
 58137  1  0  0  0  0
 59 64  1  0  0  0  0
 59 65  1  0  0  0  0
 59138  1  0  0  0  0
 60139  1  0  0  0  0
 60140  1  0  0  0  0
 60141  1  0  0  0  0
 61143  1  0  0  0  0
 61144  1  0  0  0  0
 61145  1  0  0  0  0
 62146  1  0  0  0  0
 62147  1  0  0  0  0
 62148  1  0  0  0  0
 63149  1  0  0  0  0
 63150  1  0  0  0  0
 64151  1  0  0  0  0
 64152  1  0  0  0  0
 64153  1  0  0  0  0
 66 67  1  0  0  0  0
 67 68  1  0  0  0  0
 67154  1  0  0  0  0
 68 70  1  0  0  0  0
 68155  1  0  0  0  0
 68156  1  0  0  0  0
 69 71  1  0  0  0  0
 69 75  1  0  0  0  0
 69158  1  0  0  0  0
 70 72  1  0  0  0  0
 70159  1  0  0  0  0
 70160  1  0  0  0  0
 71 73  1  0  0  0  0
 71164  1  0  0  0  0
 71165  1  0  0  0  0
 72 78  1  0  0  0  0
 72166  1  0  0  0  0
 72167  1  0  0  0  0
 73 77  1  0  0  0  0
 73168  1  0  0  0  0
 73169  1  0  0  0  0
 74 76  1  0  0  0  0
 76 79  1  0  0  0  0
 76170  1  0  0  0  0
 77 81  1  0  0  0  0
 77171  1  0  0  0  0
 77172  1  0  0  0  0
 78173  1  0  0  0  0
 78174  1  0  0  0  0
 79 82  1  0  0  0  0
 79175  1  0  0  0  0
 79176  1  0  0  0  0
 80 85  1  0  0  0  0
 80 86  1  0  0  0  0
 80179  1  0  0  0  0
 81180  1  0  0  0  0
 81181  1  0  0  0  0
 82 88  2  0  0  0  0
 82 89  1  0  0  0  0
 83 84  1  0  0  0  0
 84 87  1  0  0  0  0
 84182  1  0  0  0  0
 85185  1  0  0  0  0
 85186  1  0  0  0  0
 87 92  1  0  0  0  0
 87187  1  0  0  0  0
 87188  1  0  0  0  0
 88 93  1  0  0  0  0
 88190  1  0  0  0  0
 89 94  2  0  0  0  0
 89191  1  0  0  0  0
 90 91  1  0  0  0  0
 90 95  1  0  0  0  0
 90194  1  0  0  0  0
 92195  1  0  0  0  0
 92196  1  0  0  0  0
 93 97  2  0  0  0  0
 93198  1  0  0  0  0
 94 97  1  0  0  0  0
 94199  1  0  0  0  0
 95102  1  0  0  0  0
 95200  1  0  0  0  0
 95201  1  0  0  0  0
 96103  1  0  0  0  0
 96106  1  0  0  0  0
 96202  1  0  0  0  0
 98 99  1  0  0  0  0
 98101  1  0  0  0  0
 98205  1  0  0  0  0
 99100  1  0  0  0  0
 99206  1  0  0  0  0
 99207  1  0  0  0  0
100104  1  0  0  0  0
100105  1  0  0  0  0
100208  1  0  0  0  0
102107  1  0  0  0  0
102209  1  0  0  0  0
102210  1  0  0  0  0
103211  1  0  0  0  0
103212  1  0  0  0  0
103213  1  0  0  0  0
104214  1  0  0  0  0
104215  1  0  0  0  0
104216  1  0  0  0  0
105217  1  0  0  0  0
105218  1  0  0  0  0
105219  1  0  0  0  0
108223  1  0  0  0  0
108224  1  0  0  0  0
108225  1  0  0  0  0
M  END
> <PUBCHEM_BONDANNOTATIONS>
48  23  6
46  24  6
59  25  5
56  26  5
69  27  6
67  29  6
80  30  5
76  31  5
84  33  5
96  35  6
90  36  6
98  37  5
38  50  6
40  49  5
82  88  8
82  89  8
88  93  8
89  94  8
93  97  8
94  97  8

$$$$
