44274586
  -OEChem-10021005512D

235238  0     1  0  0  0  0  0999 V2000
    9.0106    0.7567    0.0000 S   0  0  0  0  0  0  0  0  0  0  0  0
   22.7039    0.2803    0.0000 S   0  0  0  0  0  0  0  0  0  0  0  0
    9.1448    1.7476    0.0000 S   0  0  0  0  0  0  0  0  0  0  0  0
    6.6492    6.7811    0.0000 S   0  0  0  0  0  0  0  0  0  0  0  0
   12.2716   -5.6521    0.0000 O   0  0  0  0  0  0  0  0  0  0  0  0
   15.7574   -5.9658    0.0000 O   0  0  0  0  0  0  0  0  0  0  0  0
   18.9107   -4.4472    0.0000 O   0  0  0  0  0  0  0  0  0  0  0  0
   10.5782   -5.3936    0.0000 O   0  0  0  0  0  0  0  0  0  0  0  0
    9.4400   -3.5948    0.0000 O   0  0  0  0  0  0  0  0  0  0  0  0
   20.8388   -1.5263    0.0000 O   0  0  0  0  0  0  0  0  0  0  0  0
    8.1190   -2.5044    0.0000 O   0  0  0  0  0  0  0  0  0  0  0  0
   20.9959    1.9701    0.0000 O   0  0  0  0  0  0  0  0  0  0  0  0
   21.4384   -3.8530    0.0000 O   0  0  0  0  0  0  0  0  0  0  0  0
   20.8056   -2.2407    0.0000 O   0  0  0  0  0  0  0  0  0  0  0  0
    4.9385   -0.8060    0.0000 O   0  0  0  0  0  0  0  0  0  0  0  0
   19.3373    5.0522    0.0000 O   0  0  0  0  0  0  0  0  0  0  0  0
   12.8329    6.8473    0.0000 O   0  0  0  0  0  0  0  0  0  0  0  0
   16.3328    6.8473    0.0000 O   0  0  0  0  0  0  0  0  0  0  0  0
    9.8284    5.0522    0.0000 O   0  0  0  0  0  0  0  0  0  0  0  0
    4.1954   -0.1369    0.0000 O   0  0  0  0  0  0  0  0  0  0  0  0
    8.1389    2.6846    0.0000 O   0  0  0  0  0  0  0  0  0  0  0  0
    2.6206   -3.3804    0.0000 O   0  0  0  0  0  0  0  0  0  0  0  0
   14.5829   -5.0715    0.0000 N   0  0  0  0  0  0  0  0  0  0  0  0
   11.7220   -4.2819    0.0000 N   0  0  0  0  0  0  0  0  0  0  0  0
   17.4438   -4.2819    0.0000 N   0  0  0  0  0  0  0  0  0  0  0  0
   19.4947   -2.1368    0.0000 N   0  0  0  0  0  0  0  0  0  0  0  0
    9.6710   -2.1368    0.0000 N   0  0  0  0  0  0  0  0  0  0  0  0
   20.1552    0.7567    0.0000 N   0  0  0  0  0  0  0  0  0  0  0  0
   19.2185   -6.9159    0.0000 N   0  0  0  0  0  0  0  0  0  0  0  0
    7.5838   -0.8571    0.0000 N   0  0  0  0  0  0  0  0  0  0  0  0
   19.2380    3.5793    0.0000 N   0  0  0  0  0  0  0  0  0  0  0  0
    6.0975    0.4811    0.0000 N   0  0  0  0  0  0  0  0  0  0  0  0
   14.0829    6.0619    0.0000 N   0  0  0  0  0  0  0  0  0  0  0  0
   11.3043    5.0190    0.0000 N   0  0  0  0  0  0  0  0  0  0  0  0
   17.0030    5.5319    0.0000 N   0  0  0  0  0  0  0  0  0  0  0  0
    9.0931    4.1302    0.0000 N   0  0  0  0  0  0  0  0  0  0  0  0
   20.5564   -8.0160    0.0000 N   0  0  0  0  0  0  0  0  0  0  0  0
   18.9348   -8.6246    0.0000 N   0  0  0  0  0  0  0  0  0  0  0  0
   21.7898    5.4704    0.0000 N   0  0  0  0  0  0  0  0  0  0  0  0
    3.6601    1.5104    0.0000 N   0  0  0  0  0  0  0  0  0  0  0  0
   10.2059    7.3583    0.0000 N   0  0  0  0  0  0  0  0  0  0  0  0
    4.2839    4.4448    0.0000 N   0  0  0  0  0  0  0  0  0  0  0  0
    6.4698    3.7864    0.0000 N   0  0  0  0  0  0  0  0  0  0  0  0
    9.1597    6.1240    0.0000 N   0  0  0  0  0  0  0  0  0  0  0  0
   22.8287    6.8563    0.0000 N   0  0  0  0  0  0  0  0  0  0  0  0
   23.5094    5.2636    0.0000 N   0  0  0  0  0  0  0  0  0  0  0  0
    2.5896    4.8049    0.0000 N   0  0  0  0  0  0  0  0  0  0  0  0
    3.1249    3.1576    0.0000 N   0  0  0  0  0  0  0  0  0  0  0  0
   13.4083   -5.9658    0.0000 C   0  0  2  0  0  0  0  0  0  0  0  0
   13.5869   -4.9819    0.0000 C   0  0  1  0  0  0  0  0  0  0  0  0
   14.1712   -6.6124    0.0000 C   0  0  0  0  0  0  0  0  0  0  0  0
   16.5428   -4.7158    0.0000 C   0  0  1  0  0  0  0  0  0  0  0  0
   12.4669   -6.3031    0.0000 C   0  0  0  0  0  0  0  0  0  0  0  0
   12.6229   -4.7158    0.0000 C   0  0  0  0  0  0  0  0  0  0  0  0
   15.5788   -4.9819    0.0000 C   0  0  0  0  0  0  0  0  0  0  0  0
   16.8942   -5.6521    0.0000 C   0  0  0  0  0  0  0  0  0  0  0  0
   13.9926   -7.5963    0.0000 C   0  0  0  0  0  0  0  0  0  0  0  0
   17.8807   -5.8159    0.0000 C   0  0  0  0  0  0  0  0  0  0  0  0
   10.9129   -3.6942    0.0000 C   0  0  2  0  0  0  0  0  0  0  0  0
   18.9439   -2.9714    0.0000 C   0  0  2  0  0  0  0  0  0  0  0  0
   18.2528   -3.6942    0.0000 C   0  0  0  0  0  0  0  0  0  0  0  0
   18.2320   -6.7521    0.0000 C   0  0  0  0  0  0  0  0  0  0  0  0
   10.2550   -4.4472    0.0000 C   0  0  0  0  0  0  0  0  0  0  0  0
   10.2219   -2.9714    0.0000 C   0  0  0  0  0  0  0  0  0  0  0  0
   20.1103   -0.2423    0.0000 C   0  0  1  0  0  0  0  0  0  0  0  0
   19.7257   -3.5948    0.0000 C   0  0  0  0  0  0  0  0  0  0  0  0
    9.2780   -1.2173    0.0000 C   0  0  2  0  0  0  0  0  0  0  0  0
   19.8878   -1.2173    0.0000 C   0  0  0  0  0  0  0  0  0  0  0  0
   21.1012   -0.3766    0.0000 C   0  0  0  0  0  0  0  0  0  0  0  0
   19.7119    2.6987    0.0000 C   0  0  1  0  0  0  0  0  0  0  0  0
   20.6314    3.0917    0.0000 C   0  0  0  0  0  0  0  0  0  0  0  0
    6.6327   -1.1662    0.0000 C   0  0  1  0  0  0  0  0  0  0  0  0
    9.0554   -0.2423    0.0000 C   0  0  0  0  0  0  0  0  0  0  0  0
    8.3269   -1.5263    0.0000 C   0  0  0  0  0  0  0  0  0  0  0  0
   20.0209    1.7476    0.0000 C   0  0  0  0  0  0  0  0  0  0  0  0
   21.7130    0.4145    0.0000 C   0  0  0  0  0  0  0  0  0  0  0  0
   20.6566   -3.2295    0.0000 C   0  0  0  0  0  0  0  0  0  0  0  0
   20.7508    4.0845    0.0000 C   0  0  0  0  0  0  0  0  0  0  0  0
    6.4248   -2.1443    0.0000 C   0  0  0  0  0  0  0  0  0  0  0  0
    5.8896   -0.4970    0.0000 C   0  0  0  0  0  0  0  0  0  0  0  0
    5.3543    1.1502    0.0000 C   0  0  1  0  0  0  0  0  0  0  0  0
    5.5622    2.1284    0.0000 C   0  0  0  0  0  0  0  0  0  0  0  0
   21.6704    4.4776    0.0000 C   0  0  0  0  0  0  0  0  0  0  0  0
    5.4737   -2.4533    0.0000 C   0  0  0  0  0  0  0  0  0  0  0  0
   12.1627    5.5319    0.0000 C   0  0  2  0  0  0  0  0  0  0  0  0
   15.0829    6.0619    0.0000 C   0  0  1  0  0  0  0  0  0  0  0  0
   19.5699   -7.8522    0.0000 C   0  0  0  0  0  0  0  0  0  0  0  0
   18.6146    4.3611    0.0000 C   0  0  0  0  0  0  0  0  0  0  0  0
    9.9277    3.5793    0.0000 C   0  0  1  0  0  0  0  0  0  0  0  0
   17.8615    5.0190    0.0000 C   0  0  0  0  0  0  0  0  0  0  0  0
    4.8191    2.7975    0.0000 C   0  0  0  0  0  0  0  0  0  0  0  0
   15.1725    7.0578    0.0000 C   0  0  0  0  0  0  0  0  0  0  0  0
    9.4538    2.6987    0.0000 C   0  0  0  0  0  0  0  0  0  0  0  0
   11.7288    6.4329    0.0000 C   0  0  0  0  0  0  0  0  0  0  0  0
   13.0989    5.8833    0.0000 C   0  0  0  0  0  0  0  0  0  0  0  0
   16.0668    5.8833    0.0000 C   0  0  0  0  0  0  0  0  0  0  0  0
   10.5512    4.3611    0.0000 C   0  0  0  0  0  0  0  0  0  0  0  0
    4.4033    0.8412    0.0000 C   0  0  0  0  0  0  0  0  0  0  0  0
    5.2658   -3.4315    0.0000 C   0  0  0  0  0  0  0  0  0  0  0  0
    4.7306   -1.7842    0.0000 C   0  0  0  0  0  0  0  0  0  0  0  0
    5.0270    3.7757    0.0000 C   0  0  0  0  0  0  0  0  0  0  0  0
   14.3548    7.6335    0.0000 C   0  0  0  0  0  0  0  0  0  0  0  0
   10.7316    6.5076    0.0000 C   0  0  0  0  0  0  0  0  0  0  0  0
   23.3156    1.0713    0.0000 C   0  0  0  0  0  0  0  0  0  0  0  0
    7.3642    4.2337    0.0000 C   0  0  2  0  0  0  0  0  0  0  0  0
    8.1987    3.6828    0.0000 C   0  0  0  0  0  0  0  0  0  0  0  0
    4.3148   -3.7405    0.0000 C   0  0  0  0  0  0  0  0  0  0  0  0
    3.7795   -2.0932    0.0000 C   0  0  0  0  0  0  0  0  0  0  0  0
    3.5716   -3.0714    0.0000 C   0  0  0  0  0  0  0  0  0  0  0  0
    7.4240    5.2320    0.0000 C   0  0  0  0  0  0  0  0  0  0  0  0
   13.4474    7.2131    0.0000 C   0  0  0  0  0  0  0  0  0  0  0  0
   14.4444    8.6294    0.0000 C   0  0  0  0  0  0  0  0  0  0  0  0
   10.0850    5.7448    0.0000 C   0  0  0  0  0  0  0  0  0  0  0  0
   22.7093    5.8634    0.0000 C   0  0  0  0  0  0  0  0  0  0  0  0
    6.5894    5.7828    0.0000 C   0  0  0  0  0  0  0  0  0  0  0  0
   12.6297    7.7887    0.0000 C   0  0  0  0  0  0  0  0  0  0  0  0
   13.6267    9.2050    0.0000 C   0  0  0  0  0  0  0  0  0  0  0  0
    9.2344    7.1212    0.0000 C   0  0  0  0  0  0  0  0  0  0  0  0
   12.7193    8.7847    0.0000 C   0  0  0  0  0  0  0  0  0  0  0  0
    3.3328    4.1358    0.0000 C   0  0  0  0  0  0  0  0  0  0  0  0
    5.8146    7.3320    0.0000 C   0  0  0  0  0  0  0  0  0  0  0  0
   12.9354   -5.5649    0.0000 H   0  0  0  0  0  0  0  0  0  0  0  0
   14.1018   -5.6581    0.0000 H   0  0  0  0  0  0  0  0  0  0  0  0
   14.7527   -6.8274    0.0000 H   0  0  0  0  0  0  0  0  0  0  0  0
   14.4838   -6.0770    0.0000 H   0  0  0  0  0  0  0  0  0  0  0  0
   17.1182   -4.9466    0.0000 H   0  0  0  0  0  0  0  0  0  0  0  0
   14.5829   -5.6915    0.0000 H   0  0  0  0  0  0  0  0  0  0  0  0
   12.2578   -5.7195    0.0000 H   0  0  0  0  0  0  0  0  0  0  0  0
   11.8833   -6.5123    0.0000 H   0  0  0  0  0  0  0  0  0  0  0  0
   12.6761   -6.8868    0.0000 H   0  0  0  0  0  0  0  0  0  0  0  0
   16.2847   -5.7658    0.0000 H   0  0  0  0  0  0  0  0  0  0  0  0
   16.9004   -6.2720    0.0000 H   0  0  0  0  0  0  0  0  0  0  0  0
   13.3826   -7.4856    0.0000 H   0  0  0  0  0  0  0  0  0  0  0  0
   13.8819   -8.2064    0.0000 H   0  0  0  0  0  0  0  0  0  0  0  0
   14.6026   -7.7070    0.0000 H   0  0  0  0  0  0  0  0  0  0  0  0
   11.4040   -4.8142    0.0000 H   0  0  0  0  0  0  0  0  0  0  0  0
   18.4901   -5.7021    0.0000 H   0  0  0  0  0  0  0  0  0  0  0  0
   17.8745   -5.1959    0.0000 H   0  0  0  0  0  0  0  0  0  0  0  0
   17.7618   -4.8142    0.0000 H   0  0  0  0  0  0  0  0  0  0  0  0
   10.9824   -4.3103    0.0000 H   0  0  0  0  0  0  0  0  0  0  0  0
   19.5562   -2.8744    0.0000 H   0  0  0  0  0  0  0  0  0  0  0  0
   17.6226   -6.8659    0.0000 H   0  0  0  0  0  0  0  0  0  0  0  0
   18.2382   -7.3721    0.0000 H   0  0  0  0  0  0  0  0  0  0  0  0
    9.8660   -3.9644    0.0000 H   0  0  0  0  0  0  0  0  0  0  0  0
    9.7120   -4.7465    0.0000 H   0  0  0  0  0  0  0  0  0  0  0  0
   20.5862    0.1550    0.0000 H   0  0  0  0  0  0  0  0  0  0  0  0
   19.2608   -4.0051    0.0000 H   0  0  0  0  0  0  0  0  0  0  0  0
   20.0490   -4.1239    0.0000 H   0  0  0  0  0  0  0  0  0  0  0  0
   20.0407   -2.4306    0.0000 H   0  0  0  0  0  0  0  0  0  0  0  0
    9.0216   -1.7818    0.0000 H   0  0  0  0  0  0  0  0  0  0  0  0
    9.1250   -2.4306    0.0000 H   0  0  0  0  0  0  0  0  0  0  0  0
   20.9126   -0.9672    0.0000 H   0  0  0  0  0  0  0  0  0  0  0  0
   21.6501   -0.6649    0.0000 H   0  0  0  0  0  0  0  0  0  0  0  0
   19.9167    3.2839    0.0000 H   0  0  0  0  0  0  0  0  0  0  0  0
   20.7745    0.7845    0.0000 H   0  0  0  0  0  0  0  0  0  0  0  0
   20.7724    2.4879    0.0000 H   0  0  0  0  0  0  0  0  0  0  0  0
   21.2505    3.1257    0.0000 H   0  0  0  0  0  0  0  0  0  0  0  0
    7.0934   -1.5810    0.0000 H   0  0  0  0  0  0  0  0  0  0  0  0
    8.4890    0.0098    0.0000 H   0  0  0  0  0  0  0  0  0  0  0  0
    9.6698   -0.1591    0.0000 H   0  0  0  0  0  0  0  0  0  0  0  0
   21.9016    1.0051    0.0000 H   0  0  0  0  0  0  0  0  0  0  0  0
   21.1641    0.7028    0.0000 H   0  0  0  0  0  0  0  0  0  0  0  0
    7.7127   -0.2507    0.0000 H   0  0  0  0  0  0  0  0  0  0  0  0
   20.6099    4.6883    0.0000 H   0  0  0  0  0  0  0  0  0  0  0  0
   20.1318    4.0506    0.0000 H   0  0  0  0  0  0  0  0  0  0  0  0
    6.5111   -2.7583    0.0000 H   0  0  0  0  0  0  0  0  0  0  0  0
    7.0444   -2.1660    0.0000 H   0  0  0  0  0  0  0  0  0  0  0  0
   10.1703   -5.8605    0.0000 H   0  0  0  0  0  0  0  0  0  0  0  0
   19.7555    3.9208    0.0000 H   0  0  0  0  0  0  0  0  0  0  0  0
    5.2254    0.5438    0.0000 H   0  0  0  0  0  0  0  0  0  0  0  0
    6.6871    0.6727    0.0000 H   0  0  0  0  0  0  0  0  0  0  0  0
    6.1371    1.8961    0.0000 H   0  0  0  0  0  0  0  0  0  0  0  0
    5.8908    2.6542    0.0000 H   0  0  0  0  0  0  0  0  0  0  0  0
   21.8113    3.8738    0.0000 H   0  0  0  0  0  0  0  0  0  0  0  0
   22.2894    4.5116    0.0000 H   0  0  0  0  0  0  0  0  0  0  0  0
   11.5689    5.7102    0.0000 H   0  0  0  0  0  0  0  0  0  0  0  0
   14.6646    6.5195    0.0000 H   0  0  0  0  0  0  0  0  0  0  0  0
    9.3265    3.4278    0.0000 H   0  0  0  0  0  0  0  0  0  0  0  0
   18.4352    5.2542    0.0000 H   0  0  0  0  0  0  0  0  0  0  0  0
   17.4971    4.5174    0.0000 H   0  0  0  0  0  0  0  0  0  0  0  0
    4.2442    3.0298    0.0000 H   0  0  0  0  0  0  0  0  0  0  0  0
    4.4905    2.2717    0.0000 H   0  0  0  0  0  0  0  0  0  0  0  0
   15.7710    6.8959    0.0000 H   0  0  0  0  0  0  0  0  0  0  0  0
   15.4359    7.6191    0.0000 H   0  0  0  0  0  0  0  0  0  0  0  0
    9.0969    3.2056    0.0000 H   0  0  0  0  0  0  0  0  0  0  0  0
   10.0239    2.4550    0.0000 H   0  0  0  0  0  0  0  0  0  0  0  0
   12.3256    6.6008    0.0000 H   0  0  0  0  0  0  0  0  0  0  0  0
   11.6671    7.0498    0.0000 H   0  0  0  0  0  0  0  0  0  0  0  0
   14.0273    6.6794    0.0000 H   0  0  0  0  0  0  0  0  0  0  0  0
   10.9398    5.5206    0.0000 H   0  0  0  0  0  0  0  0  0  0  0  0
   17.2720    6.0905    0.0000 H   0  0  0  0  0  0  0  0  0  0  0  0
   22.0155   -3.6265    0.0000 H   0  0  0  0  0  0  0  0  0  0  0  0
    5.7266   -3.8463    0.0000 H   0  0  0  0  0  0  0  0  0  0  0  0
    4.8595   -1.1778    0.0000 H   0  0  0  0  0  0  0  0  0  0  0  0
    9.1302    4.7491    0.0000 H   0  0  0  0  0  0  0  0  0  0  0  0
    5.6019    3.5434    0.0000 H   0  0  0  0  0  0  0  0  0  0  0  0
    5.3556    4.3015    0.0000 H   0  0  0  0  0  0  0  0  0  0  0  0
   20.7743   -8.5965    0.0000 H   0  0  0  0  0  0  0  0  0  0  0  0
   19.1526   -9.2050    0.0000 H   0  0  0  0  0  0  0  0  0  0  0  0
   20.9502   -7.5371    0.0000 H   0  0  0  0  0  0  0  0  0  0  0  0
   18.3232   -8.5230    0.0000 H   0  0  0  0  0  0  0  0  0  0  0  0
   23.8061    0.6921    0.0000 H   0  0  0  0  0  0  0  0  0  0  0  0
   23.6949    1.5618    0.0000 H   0  0  0  0  0  0  0  0  0  0  0  0
   22.8252    1.4506    0.0000 H   0  0  0  0  0  0  0  0  0  0  0  0
    7.3271    3.6148    0.0000 H   0  0  0  0  0  0  0  0  0  0  0  0
    4.1859   -4.3469    0.0000 H   0  0  0  0  0  0  0  0  0  0  0  0
    3.3188   -1.6784    0.0000 H   0  0  0  0  0  0  0  0  0  0  0  0
    8.0270    5.0880    0.0000 H   0  0  0  0  0  0  0  0  0  0  0  0
    7.6705    5.8008    0.0000 H   0  0  0  0  0  0  0  0  0  0  0  0
   13.3919    6.5956    0.0000 H   0  0  0  0  0  0  0  0  0  0  0  0
   15.0070    8.8900    0.0000 H   0  0  0  0  0  0  0  0  0  0  0  0
    3.0705    1.3188    0.0000 H   0  0  0  0  0  0  0  0  0  0  0  0
    3.7890    2.1168    0.0000 H   0  0  0  0  0  0  0  0  0  0  0  0
   10.2320    5.1425    0.0000 H   0  0  0  0  0  0  0  0  0  0  0  0
    5.9864    5.9268    0.0000 H   0  0  0  0  0  0  0  0  0  0  0  0
    6.3429    5.2140    0.0000 H   0  0  0  0  0  0  0  0  0  0  0  0
    5.9524    4.1280    0.0000 H   0  0  0  0  0  0  0  0  0  0  0  0
    6.4327    3.1675    0.0000 H   0  0  0  0  0  0  0  0  0  0  0  0
   12.0671    7.5281    0.0000 H   0  0  0  0  0  0  0  0  0  0  0  0
   13.6823    9.8226    0.0000 H   0  0  0  0  0  0  0  0  0  0  0  0
    8.6323    5.7981    0.0000 H   0  0  0  0  0  0  0  0  0  0  0  0
    8.7615    7.5221    0.0000 H   0  0  0  0  0  0  0  0  0  0  0  0
   12.2124    9.1416    0.0000 H   0  0  0  0  0  0  0  0  0  0  0  0
    2.4917   -3.9868    0.0000 H   0  0  0  0  0  0  0  0  0  0  0  0
   24.0795    5.5073    0.0000 H   0  0  0  0  0  0  0  0  0  0  0  0
   23.4354    4.6480    0.0000 H   0  0  0  0  0  0  0  0  0  0  0  0
   23.3988    7.1000    0.0000 H   0  0  0  0  0  0  0  0  0  0  0  0
   22.3326    7.2282    0.0000 H   0  0  0  0  0  0  0  0  0  0  0  0
    2.0000    4.6133    0.0000 H   0  0  0  0  0  0  0  0  0  0  0  0
    2.7186    5.4114    0.0000 H   0  0  0  0  0  0  0  0  0  0  0  0
    2.5352    2.9660    0.0000 H   0  0  0  0  0  0  0  0  0  0  0  0
    3.5856    2.7428    0.0000 H   0  0  0  0  0  0  0  0  0  0  0  0
    6.1562    7.8494    0.0000 H   0  0  0  0  0  0  0  0  0  0  0  0
    5.2972    7.6735    0.0000 H   0  0  0  0  0  0  0  0  0  0  0  0
    5.4731    6.8145    0.0000 H   0  0  0  0  0  0  0  0  0  0  0  0
  1  3  1  0  0  0  0
  1 73  1  0  0  0  0
  2 76  1  0  0  0  0
  2104  1  0  0  0  0
  3 93  1  0  0  0  0
  4115  1  0  0  0  0
  4121  1  0  0  0  0
  5 54  2  0  0  0  0
  6 55  2  0  0  0  0
  7 61  2  0  0  0  0
  8 63  1  0  0  0  0
  8168  1  0  0  0  0
  9 64  2  0  0  0  0
 10 68  2  0  0  0  0
 11 74  2  0  0  0  0
 12 75  2  0  0  0  0
 13 77  1  0  0  0  0
 13192  1  0  0  0  0
 14 77  2  0  0  0  0
 15 80  2  0  0  0  0
 16 88  2  0  0  0  0
 17 95  2  0  0  0  0
 18 96  2  0  0  0  0
 19 97  2  0  0  0  0
 20 98  2  0  0  0  0
 21106  2  0  0  0  0
 22109  1  0  0  0  0
 22224  1  0  0  0  0
 23 50  1  0  0  0  0
 23 55  1  0  0  0  0
 23127  1  0  0  0  0
 24 54  1  0  0  0  0
 24 59  1  0  0  0  0
 24136  1  0  0  0  0
 25 52  1  0  0  0  0
 25 61  1  0  0  0  0
 25139  1  0  0  0  0
 26 60  1  0  0  0  0
 26 68  1  0  0  0  0
 26149  1  0  0  0  0
 27 64  1  0  0  0  0
 27 67  1  0  0  0  0
 27151  1  0  0  0  0
 28 65  1  0  0  0  0
 28 75  1  0  0  0  0
 28155  1  0  0  0  0
 29 62  1  0  0  0  0
 29 87  2  0  0  0  0
 72 30  1  1  0  0  0
 30 74  1  0  0  0  0
 30163  1  0  0  0  0
 31 70  1  0  0  0  0
 31 88  1  0  0  0  0
 31169  1  0  0  0  0
 32 80  1  0  0  0  0
 81 32  1  6  0  0  0
 32171  1  0  0  0  0
 33 86  1  0  0  0  0
 33 95  1  0  0  0  0
 33189  1  0  0  0  0
 34 85  1  0  0  0  0
 34 97  1  0  0  0  0
 34190  1  0  0  0  0
 35 90  1  0  0  0  0
 35 96  1  0  0  0  0
 35191  1  0  0  0  0
 89 36  1  6  0  0  0
 36106  1  0  0  0  0
 36195  1  0  0  0  0
 37 87  1  0  0  0  0
 37198  1  0  0  0  0
 37200  1  0  0  0  0
 38 87  1  0  0  0  0
 38199  1  0  0  0  0
 38201  1  0  0  0  0
 39 83  1  0  0  0  0
 39114  2  0  0  0  0
 40 98  1  0  0  0  0
 40212  1  0  0  0  0
 40213  1  0  0  0  0
 41103  1  0  0  0  0
 41118  2  0  0  0  0
 42101  1  0  0  0  0
 42120  2  0  0  0  0
105 43  1  1  0  0  0
 43217  1  0  0  0  0
 43218  1  0  0  0  0
 44113  1  0  0  0  0
 44118  1  0  0  0  0
 44221  1  0  0  0  0
 45114  1  0  0  0  0
 45227  1  0  0  0  0
 45228  1  0  0  0  0
 46114  1  0  0  0  0
 46225  1  0  0  0  0
 46226  1  0  0  0  0
 47120  1  0  0  0  0
 47229  1  0  0  0  0
 47230  1  0  0  0  0
 48120  1  0  0  0  0
 48231  1  0  0  0  0
 48232  1  0  0  0  0
 49 50  1  0  0  0  0
 49 51  1  0  0  0  0
 49 53  1  6  0  0  0
 49122  1  0  0  0  0
 50 54  1  0  0  0  0
 50123  1  6  0  0  0
 51 57  1  0  0  0  0
 51124  1  0  0  0  0
 51125  1  0  0  0  0
 52 55  1  0  0  0  0
 52 56  1  6  0  0  0
 52126  1  0  0  0  0
 53128  1  0  0  0  0
 53129  1  0  0  0  0
 53130  1  0  0  0  0
 56 58  1  0  0  0  0
 56131  1  0  0  0  0
 56132  1  0  0  0  0
 57133  1  0  0  0  0
 57134  1  0  0  0  0
 57135  1  0  0  0  0
 58 62  1  0  0  0  0
 58137  1  0  0  0  0
 58138  1  0  0  0  0
 59 63  1  6  0  0  0
 59 64  1  0  0  0  0
 59140  1  0  0  0  0
 60 61  1  0  0  0  0
 60 66  1  1  0  0  0
 60141  1  0  0  0  0
 62142  1  0  0  0  0
 62143  1  0  0  0  0
 63144  1  0  0  0  0
 63145  1  0  0  0  0
 65 68  1  0  0  0  0
 65 69  1  6  0  0  0
 65146  1  0  0  0  0
 66 77  1  0  0  0  0
 66147  1  0  0  0  0
 66148  1  0  0  0  0
 67 73  1  0  0  0  0
 67 74  1  1  0  0  0
 67150  1  0  0  0  0
 69 76  1  0  0  0  0
 69152  1  0  0  0  0
 69153  1  0  0  0  0
 70 71  1  1  0  0  0
 70 75  1  0  0  0  0
 70154  1  0  0  0  0
 71 78  1  0  0  0  0
 71156  1  0  0  0  0
 71157  1  0  0  0  0
 72 79  1  0  0  0  0
 72 80  1  0  0  0  0
 72158  1  0  0  0  0
 73159  1  0  0  0  0
 73160  1  0  0  0  0
 76161  1  0  0  0  0
 76162  1  0  0  0  0
 78 83  1  0  0  0  0
 78164  1  0  0  0  0
 78165  1  0  0  0  0
 79 84  1  0  0  0  0
 79166  1  0  0  0  0
 79167  1  0  0  0  0
 81 82  1  0  0  0  0
 81 98  1  0  0  0  0
 81170  1  0  0  0  0
 82 91  1  0  0  0  0
 82172  1  0  0  0  0
 82173  1  0  0  0  0
 83174  1  0  0  0  0
 83175  1  0  0  0  0
 84 99  2  0  0  0  0
 84100  1  0  0  0  0
 85 94  1  6  0  0  0
 85 95  1  0  0  0  0
 85176  1  0  0  0  0
 86 92  1  1  0  0  0
 86 96  1  0  0  0  0
 86177  1  0  0  0  0
 88 90  1  0  0  0  0
 89 93  1  0  0  0  0
 89 97  1  0  0  0  0
 89178  1  0  0  0  0
 90179  1  0  0  0  0
 90180  1  0  0  0  0
 91101  1  0  0  0  0
 91181  1  0  0  0  0
 91182  1  0  0  0  0
 92102  1  0  0  0  0
 92183  1  0  0  0  0
 92184  1  0  0  0  0
 93185  1  0  0  0  0
 93186  1  0  0  0  0
 94103  1  0  0  0  0
 94187  1  0  0  0  0
 94188  1  0  0  0  0
 99107  1  0  0  0  0
 99193  1  0  0  0  0
100108  2  0  0  0  0
100194  1  0  0  0  0
101196  1  0  0  0  0
101197  1  0  0  0  0
102111  2  0  0  0  0
102112  1  0  0  0  0
103113  2  0  0  0  0
104202  1  0  0  0  0
104203  1  0  0  0  0
104204  1  0  0  0  0
105106  1  0  0  0  0
105110  1  0  0  0  0
105205  1  0  0  0  0
107109  2  0  0  0  0
107206  1  0  0  0  0
108109  1  0  0  0  0
108207  1  0  0  0  0
110115  1  0  0  0  0
110208  1  0  0  0  0
110209  1  0  0  0  0
111116  1  0  0  0  0
111210  1  0  0  0  0
112117  2  0  0  0  0
112211  1  0  0  0  0
113214  1  0  0  0  0
115215  1  0  0  0  0
115216  1  0  0  0  0
116119  2  0  0  0  0
116219  1  0  0  0  0
117119  1  0  0  0  0
117220  1  0  0  0  0
118222  1  0  0  0  0
119223  1  0  0  0  0
121233  1  0  0  0  0
121234  1  0  0  0  0
121235  1  0  0  0  0
M  END
> <PUBCHEM_COMPOUND_CID>
44274586

> <PUBCHEM_COMPOUND_CANONICALIZED>
0

> <PUBCHEM_CACTVS_COMPLEXITY>
3500

> <PUBCHEM_CACTVS_HBOND_ACCEPTOR>
29

> <PUBCHEM_CACTVS_HBOND_DONOR>
25

> <PUBCHEM_CACTVS_ROTATABLE_BOND>
36

> <PUBCHEM_CACTVS_SUBSKEYS>
AAADcfB//gBwAAAAAAAAAAAAAAAAAWAAAAAwYAAAAAAAAAAB0AAAHgQQCAAADSzl3ga/npbJkgioAzX3fAACgC2xMrAJ2YG+eIiKfj7i2TOUcAAu9hPY2Ce/yaCOIAAAAAAAAABAAAAAAAAAAAAAAAAAAA==

> <PUBCHEM_NIST_INCHI>
InChI=1S/C73H114N26O18S4/c1-5-38(2)57-70(117)96-52(34-100)67(114)98-54(69(116)93-49(29-40-17-19-42(101)20-18-40)64(111)89-44(58(75)105)14-9-23-83-71(76)77)36-121-120-35-53(97-59(106)43(74)21-26-118-3)68(115)94-50(30-41-32-82-37-87-41)65(112)92-48(28-39-12-7-6-8-13-39)60(107)86-33-55(102)88-45(15-10-24-84-72(78)79)61(108)91-47(22-27-119-4)62(109)95-51(31-56(103)104)66(113)90-46(63(110)99-57)16-11-25-85-73(80)81/h6-8,12-13,17-20,32,37-38,43-54,57,100-101H,5,9-11,14-16,21-31,33-36,74H2,1-4H3,(H2,75,105)(H,82,87)(H,86,107)(H,88,102)(H,89,111)(H,90,113)(H,91,108)(H,92,112)(H,93,116)(H,94,115)(H,95,109)(H,96,117)(H,97,106)(H,98,114)(H,99,110)(H,103,104)(H4,76,77,83)(H4,78,79,84)(H4,80,81,85)/t38-,43-,44-,45-,46+,47+,48-,49-,50+,51-,52+,53-,54+,57-/m0/s1

> <PUBCHEM_NIST_INCHIKEY>
DHGFBWWCNOAUHG-HQEJJGHVSA-N

> <PUBCHEM_XLOGP3_AA>
-7.4

> <PUBCHEM_EXACT_MASS>
1770.768724

> <PUBCHEM_MOLECULAR_FORMULA>
C73H114N26O18S4

> <PUBCHEM_MOLECULAR_WEIGHT>
1772.10966

> <PUBCHEM_OPENEYE_CAN_SMILES>
CCC(C)C1C(=O)NC(C(=O)NC(CSSCC(C(=O)NC(C(=O)NC(C(=O)NCC(=O)NC(C(=O)NC(C(=O)NC(C(=O)NC(C(=O)N1)CCCN=C(N)N)CC(=O)O)CCSC)CCCN=C(N)N)CC2=CC=CC=C2)CC3=CNC=N3)NC(=O)C(CCSC)N)C(=O)NC(CC4=CC=C(C=C4)O)C(=O)NC(CCCN=C(N)N)C(=O)N)CO

> <PUBCHEM_OPENEYE_ISO_SMILES>
CC[C@H](C)[C@H]1C(=O)N[C@@H](C(=O)N[C@H](CSSC[C@@H](C(=O)N[C@@H](C(=O)N[C@H](C(=O)NCC(=O)N[C@H](C(=O)N[C@@H](C(=O)N[C@H](C(=O)N[C@@H](C(=O)N1)CCCN=C(N)N)CC(=O)O)CCSC)CCCN=C(N)N)CC2=CC=CC=C2)CC3=CNC=N3)NC(=O)[C@H](CCSC)N)C(=O)N[C@@H](CC4=CC=C(C=C4)O)C(=O)N[C@@H](CCCN=C(N)N)C(=O)N)CO

> <PUBCHEM_CACTVS_TPSA>
848

> <PUBCHEM_MONOISOTOPIC_WEIGHT>
1770.768724

> <PUBCHEM_TOTAL_CHARGE>
0

> <PUBCHEM_HEAVY_ATOM_COUNT>
121

> <PUBCHEM_ATOM_DEF_STEREO_COUNT>
14

> <PUBCHEM_ATOM_UDEF_STEREO_COUNT>
0

> <PUBCHEM_BOND_DEF_STEREO_COUNT>
0

> <PUBCHEM_BOND_UDEF_STEREO_COUNT>
0

> <PUBCHEM_ISOTOPIC_ATOM_COUNT>
0

> <PUBCHEM_COMPONENT_COUNT>
1

> <PUBCHEM_CACTVS_TAUTO_COUNT>
1001

> <PUBCHEM_COORDINATE_TYPE>
1
3

> <PUBCHEM_BONDANNOTATIONS>
100  108  8
102  111  8
102  112  8
103  113  8
107  109  8
108  109  8
111  116  8
112  117  8
116  119  8
117  119  8
72  30  5
81  32  6
89  36  6
41  103  8
41  118  8
105  43  5
44  113  8
44  118  8
49  53  6
50  123  6
52  56  6
59  63  6
60  66  5
65  69  6
67  74  5
70  71  5
84  100  8
84  99  8
85  94  6
86  92  5
99  107  8

$$$$

