44457706
  -OEChem-10021005512D

239243  0     1  0  0  0  0  0999 V2000
   14.6613    0.9050    0.0000 S   0  0  0  0  0  0  0  0  0  0  0  0
   15.5273    1.4050    0.0000 S   0  0  0  0  0  0  0  0  0  0  0  0
   19.8574   -3.0950    0.0000 S   0  0  0  0  0  0  0  0  0  0  0  0
    5.6350   -3.7290    0.0000 O   0  0  0  0  0  0  0  0  0  0  0  0
    2.5369   -3.0950    0.0000 O   0  0  0  0  0  0  0  0  0  0  0  0
    5.1350   -0.5950    0.0000 O   0  0  0  0  0  0  0  0  0  0  0  0
    7.7331   -6.0950    0.0000 O   0  0  0  0  0  0  0  0  0  0  0  0
    2.5369   -0.0950    0.0000 O   0  0  0  0  0  0  0  0  0  0  0  0
    4.2690   -0.0950    0.0000 O   0  0  0  0  0  0  0  0  0  0  0  0
    7.7331   -3.0950    0.0000 O   0  0  0  0  0  0  0  0  0  0  0  0
    9.4651    0.9050    0.0000 O   0  0  0  0  0  0  0  0  0  0  0  0
   10.3312   -3.5950    0.0000 O   0  0  0  0  0  0  0  0  0  0  0  0
   10.3312    1.4050    0.0000 O   0  0  0  0  0  0  0  0  0  0  0  0
   11.5633   -1.4611    0.0000 O   0  0  0  0  0  0  0  0  0  0  0  0
   11.1972   -3.0950    0.0000 O   0  0  0  0  0  0  0  0  0  0  0  0
   11.1972    1.9050    0.0000 O   0  0  0  0  0  0  0  0  0  0  0  0
   14.2953   -0.7290    0.0000 O   0  0  0  0  0  0  0  0  0  0  0  0
   13.7953    4.4050    0.0000 O   0  0  0  0  0  0  0  0  0  0  0  0
   14.6613   -0.0950    0.0000 O   0  0  0  0  0  0  0  0  0  0  0  0
   10.3312    5.4050    0.0000 O   0  0  0  0  0  0  0  0  0  0  0  0
   18.1254    0.9050    0.0000 O   0  0  0  0  0  0  0  0  0  0  0  0
   17.2594    4.4050    0.0000 O   0  0  0  0  0  0  0  0  0  0  0  0
    4.2690   -5.0950    0.0000 N   0  0  0  0  0  0  0  0  0  0  0  0
    4.2690   -3.0950    0.0000 N   0  0  0  0  0  0  0  0  0  0  0  0
    6.8671   -4.5950    0.0000 N   0  0  0  0  0  0  0  0  0  0  0  0
    6.0010   -2.0950    0.0000 N   0  0  0  0  0  0  0  0  0  0  0  0
    4.2690   -8.0950    0.0000 N   0  0  0  0  0  0  0  0  0  0  0  0
    8.5991   -1.5950    0.0000 N   0  0  0  0  0  0  0  0  0  0  0  0
    9.4651   -5.0950    0.0000 N   0  0  0  0  0  0  0  0  0  0  0  0
   10.3312   -0.5950    0.0000 N   0  0  0  0  0  0  0  0  0  0  0  0
    3.4030   -9.5950    0.0000 N   0  0  0  0  0  0  0  0  0  0  0  0
    5.1350   -9.5950    0.0000 N   0  0  0  0  0  0  0  0  0  0  0  0
    5.1350    1.4050    0.0000 N   0  0  0  0  0  0  0  0  0  0  0  0
   12.0632   -4.5950    0.0000 N   0  0  0  0  0  0  0  0  0  0  0  0
   12.9292   -0.0950    0.0000 N   0  0  0  0  0  0  0  0  0  0  0  0
   12.9292   -2.0950    0.0000 N   0  0  0  0  0  0  0  0  0  0  0  0
    4.2690    2.9050    0.0000 N   0  0  0  0  0  0  0  0  0  0  0  0
    6.0010    2.9050    0.0000 N   0  0  0  0  0  0  0  0  0  0  0  0
   12.0632    2.4050    0.0000 N   0  0  0  0  0  0  0  0  0  0  0  0
   12.0632    4.4050    0.0000 N   0  0  0  0  0  0  0  0  0  0  0  0
   15.5273   -1.5950    0.0000 N   0  0  0  0  0  0  0  0  0  0  0  0
   17.2594   -0.5950    0.0000 N   0  0  0  0  0  0  0  0  0  0  0  0
   15.6318   -4.5895    0.0000 N   0  0  0  0  0  0  0  0  0  0  0  0
   11.1972    6.9050    0.0000 N   0  0  0  0  0  0  0  0  0  0  0  0
   17.1100   -3.9314    0.0000 N   0  0  0  0  0  0  0  0  0  0  0  0
   13.7953    8.4050    0.0000 N   0  0  0  0  0  0  0  0  0  0  0  0
   19.8574   -0.0950    0.0000 N   0  0  0  0  0  0  0  0  0  0  0  0
   14.6613    9.9050    0.0000 N   0  0  0  0  0  0  0  0  0  0  0  0
   15.5273    8.4050    0.0000 N   0  0  0  0  0  0  0  0  0  0  0  0
    3.4030   -4.5950    0.0000 C   0  0  1  0  0  0  0  0  0  0  0  0
    2.6660   -5.2621    0.0000 C   0  0  0  0  0  0  0  0  0  0  0  0
    3.0711   -6.1699    0.0000 C   0  0  0  0  0  0  0  0  0  0  0  0
    4.0598   -6.0668    0.0000 C   0  0  0  0  0  0  0  0  0  0  0  0
    5.1350   -4.5950    0.0000 C   0  0  0  0  0  0  0  0  0  0  0  0
    3.4030   -3.5950    0.0000 C   0  0  0  0  0  0  0  0  0  0  0  0
    6.0010   -5.0950    0.0000 C   0  0  1  0  0  0  0  0  0  0  0  0
    6.0010   -6.0950    0.0000 C   0  0  0  0  0  0  0  0  0  0  0  0
    4.2690   -2.0950    0.0000 C   0  0  2  0  0  0  0  0  0  0  0  0
    5.1350   -6.5950    0.0000 C   0  0  0  0  0  0  0  0  0  0  0  0
    3.4030   -1.5950    0.0000 C   0  0  0  0  0  0  0  0  0  0  0  0
    5.1350   -1.5950    0.0000 C   0  0  0  0  0  0  0  0  0  0  0  0
    5.1350   -7.5950    0.0000 C   0  0  0  0  0  0  0  0  0  0  0  0
    7.7331   -5.0950    0.0000 C   0  0  0  0  0  0  0  0  0  0  0  0
    6.8671   -1.5950    0.0000 C   0  0  1  0  0  0  0  0  0  0  0  0
    8.5991   -4.5950    0.0000 C   0  0  0  0  0  0  0  0  0  0  0  0
    6.8671   -0.5950    0.0000 C   0  0  0  0  0  0  0  0  0  0  0  0
    3.4030   -0.5950    0.0000 C   0  0  0  0  0  0  0  0  0  0  0  0
    7.7331   -2.0950    0.0000 C   0  0  0  0  0  0  0  0  0  0  0  0
    8.5991   -0.5950    0.0000 C   0  0  2  0  0  0  0  0  0  0  0  0
    8.2571    0.3447    0.0000 C   0  0  2  0  0  0  0  0  0  0  0  0
    6.0010   -0.0950    0.0000 C   0  0  0  0  0  0  0  0  0  0  0  0
    8.8999    1.1107    0.0000 C   0  0  0  0  0  0  0  0  0  0  0  0
    9.4651   -0.0950    0.0000 C   0  0  0  0  0  0  0  0  0  0  0  0
    7.2724    0.5184    0.0000 C   0  0  0  0  0  0  0  0  0  0  0  0
    6.0010    0.9050    0.0000 C   0  0  0  0  0  0  0  0  0  0  0  0
    4.2690   -9.0950    0.0000 C   0  0  0  0  0  0  0  0  0  0  0  0
   10.3312   -4.5950    0.0000 C   0  0  0  0  0  0  0  0  0  0  0  0
    8.5579    2.0504    0.0000 C   0  0  0  0  0  0  0  0  0  0  0  0
   11.1972   -0.0950    0.0000 C   0  0  1  0  0  0  0  0  0  0  0  0
   11.1972   -5.0950    0.0000 C   0  0  0  0  0  0  0  0  0  0  0  0
   11.1972    0.9050    0.0000 C   0  0  0  0  0  0  0  0  0  0  0  0
   12.0632   -0.5950    0.0000 C   0  0  0  0  0  0  0  0  0  0  0  0
    5.1350    2.4050    0.0000 C   0  0  0  0  0  0  0  0  0  0  0  0
   12.9292    0.9050    0.0000 C   0  0  1  0  0  0  0  0  0  0  0  0
   12.0632   -3.5950    0.0000 C   0  0  0  0  0  0  0  0  0  0  0  0
   12.9292   -3.0950    0.0000 C   0  0  1  0  0  0  0  0  0  0  0  0
   13.7953    1.4050    0.0000 C   0  0  0  0  0  0  0  0  0  0  0  0
   12.0632    1.4050    0.0000 C   0  0  0  0  0  0  0  0  0  0  0  0
   13.7953   -3.5950    0.0000 C   0  0  0  0  0  0  0  0  0  0  0  0
   12.9292    2.9050    0.0000 C   0  0  1  0  0  0  0  0  0  0  0  0
   14.6613   -2.0950    0.0000 C   0  0  2  0  0  0  0  0  0  0  0  0
   13.7953    2.4050    0.0000 C   0  0  0  0  0  0  0  0  0  0  0  0
   13.7953   -1.5950    0.0000 C   0  0  0  0  0  0  0  0  0  0  0  0
   13.9690   -4.5798    0.0000 C   0  0  0  0  0  0  0  0  0  0  0  0
   12.9292    3.9050    0.0000 C   0  0  0  0  0  0  0  0  0  0  0  0
   14.6613   -3.0950    0.0000 C   0  0  0  0  0  0  0  0  0  0  0  0
   12.0632    5.4050    0.0000 C   0  0  1  0  0  0  0  0  0  0  0  0
   16.3933   -0.0950    0.0000 C   0  0  1  0  0  0  0  0  0  0  0  0
   14.6613    2.9050    0.0000 C   0  0  0  0  0  0  0  0  0  0  0  0
   12.9292    5.9050    0.0000 C   0  0  0  0  0  0  0  0  0  0  0  0
   16.3933    0.9050    0.0000 C   0  0  0  0  0  0  0  0  0  0  0  0
   15.5273   -0.5950    0.0000 C   0  0  0  0  0  0  0  0  0  0  0  0
   14.9086   -4.9218    0.0000 C   0  0  0  0  0  0  0  0  0  0  0  0
   13.2029   -5.2226    0.0000 C   0  0  0  0  0  0  0  0  0  0  0  0
   12.9292    6.9050    0.0000 C   0  0  0  0  0  0  0  0  0  0  0  0
   15.5273   -3.5950    0.0000 C   0  0  0  0  0  0  0  0  0  0  0  0
   14.6613    3.9050    0.0000 C   0  0  0  0  0  0  0  0  0  0  0  0
   15.5273    2.4050    0.0000 C   0  0  0  0  0  0  0  0  0  0  0  0
   11.1972    5.9050    0.0000 C   0  0  0  0  0  0  0  0  0  0  0  0
   15.0823   -5.9066    0.0000 C   0  0  0  0  0  0  0  0  0  0  0  0
   13.3766   -6.2074    0.0000 C   0  0  0  0  0  0  0  0  0  0  0  0
   13.7953    7.4050    0.0000 C   0  0  0  0  0  0  0  0  0  0  0  0
   18.1254   -0.0950    0.0000 C   0  0  0  0  0  0  0  0  0  0  0  0
   18.9914   -0.5950    0.0000 C   0  0  2  0  0  0  0  0  0  0  0  0
   14.3163   -6.5494    0.0000 C   0  0  0  0  0  0  0  0  0  0  0  0
   16.4409   -3.1883    0.0000 C   0  0  0  0  0  0  0  0  0  0  0  0
   15.5273    4.4050    0.0000 C   0  0  0  0  0  0  0  0  0  0  0  0
   16.3933    2.9050    0.0000 C   0  0  0  0  0  0  0  0  0  0  0  0
   16.3933    3.9050    0.0000 C   0  0  0  0  0  0  0  0  0  0  0  0
   18.9914   -1.5950    0.0000 C   0  0  0  0  0  0  0  0  0  0  0  0
   16.6100   -4.7974    0.0000 C   0  0  0  0  0  0  0  0  0  0  0  0
   19.8574   -2.0950    0.0000 C   0  0  0  0  0  0  0  0  0  0  0  0
   14.6613    8.9050    0.0000 C   0  0  0  0  0  0  0  0  0  0  0  0
   20.7235   -3.5950    0.0000 C   0  0  0  0  0  0  0  0  0  0  0  0
    2.6260   -4.2503    0.0000 H   0  0  0  0  0  0  0  0  0  0  0  0
    2.3005   -4.7612    0.0000 H   0  0  0  0  0  0  0  0  0  0  0  0
    2.1295   -5.5729    0.0000 H   0  0  0  0  0  0  0  0  0  0  0  0
    2.4815   -6.3616    0.0000 H   0  0  0  0  0  0  0  0  0  0  0  0
    3.1998   -6.7764    0.0000 H   0  0  0  0  0  0  0  0  0  0  0  0
    4.0589   -6.6868    0.0000 H   0  0  0  0  0  0  0  0  0  0  0  0
    4.6762   -6.1329    0.0000 H   0  0  0  0  0  0  0  0  0  0  0  0
    6.5380   -5.4050    0.0000 H   0  0  0  0  0  0  0  0  0  0  0  0
    6.2131   -6.6776    0.0000 H   0  0  0  0  0  0  0  0  0  0  0  0
    6.6116   -5.9873    0.0000 H   0  0  0  0  0  0  0  0  0  0  0  0
    4.8059   -3.4050    0.0000 H   0  0  0  0  0  0  0  0  0  0  0  0
    3.7320   -2.4050    0.0000 H   0  0  0  0  0  0  0  0  0  0  0  0
    6.8671   -3.9750    0.0000 H   0  0  0  0  0  0  0  0  0  0  0  0
    4.9230   -6.0124    0.0000 H   0  0  0  0  0  0  0  0  0  0  0  0
    4.5244   -6.7027    0.0000 H   0  0  0  0  0  0  0  0  0  0  0  0
    2.7924   -1.4873    0.0000 H   0  0  0  0  0  0  0  0  0  0  0  0
    3.1909   -2.1776    0.0000 H   0  0  0  0  0  0  0  0  0  0  0  0
    5.3471   -8.1776    0.0000 H   0  0  0  0  0  0  0  0  0  0  0  0
    5.7456   -7.4873    0.0000 H   0  0  0  0  0  0  0  0  0  0  0  0
    6.3301   -1.2850    0.0000 H   0  0  0  0  0  0  0  0  0  0  0  0
    6.0010   -2.7150    0.0000 H   0  0  0  0  0  0  0  0  0  0  0  0
    8.9976   -4.1200    0.0000 H   0  0  0  0  0  0  0  0  0  0  0  0
    8.2006   -4.1200    0.0000 H   0  0  0  0  0  0  0  0  0  0  0  0
    7.4776   -0.7027    0.0000 H   0  0  0  0  0  0  0  0  0  0  0  0
    7.0791   -0.0124    0.0000 H   0  0  0  0  0  0  0  0  0  0  0  0
    7.7620   -0.7426    0.0000 H   0  0  0  0  0  0  0  0  0  0  0  0
    7.8585   -0.1302    0.0000 H   0  0  0  0  0  0  0  0  0  0  0  0
    5.3905    0.0127    0.0000 H   0  0  0  0  0  0  0  0  0  0  0  0
    5.7890   -0.6776    0.0000 H   0  0  0  0  0  0  0  0  0  0  0  0
    9.1360   -1.9050    0.0000 H   0  0  0  0  0  0  0  0  0  0  0  0
    9.4651   -5.7150    0.0000 H   0  0  0  0  0  0  0  0  0  0  0  0
    9.2984    0.6358    0.0000 H   0  0  0  0  0  0  0  0  0  0  0  0
    9.4368    1.4207    0.0000 H   0  0  0  0  0  0  0  0  0  0  0  0
    7.3801    1.1290    0.0000 H   0  0  0  0  0  0  0  0  0  0  0  0
    6.6618    0.6261    0.0000 H   0  0  0  0  0  0  0  0  0  0  0  0
    7.1646   -0.0922    0.0000 H   0  0  0  0  0  0  0  0  0  0  0  0
    6.6116    0.7973    0.0000 H   0  0  0  0  0  0  0  0  0  0  0  0
    6.2131    1.4876    0.0000 H   0  0  0  0  0  0  0  0  0  0  0  0
    2.0000   -0.4050    0.0000 H   0  0  0  0  0  0  0  0  0  0  0  0
    9.1405    2.2625    0.0000 H   0  0  0  0  0  0  0  0  0  0  0  0
    8.3458    2.6330    0.0000 H   0  0  0  0  0  0  0  0  0  0  0  0
    7.9752    1.8384    0.0000 H   0  0  0  0  0  0  0  0  0  0  0  0
   10.3312   -1.2150    0.0000 H   0  0  0  0  0  0  0  0  0  0  0  0
   10.6603    0.2150    0.0000 H   0  0  0  0  0  0  0  0  0  0  0  0
   10.7987   -5.5700    0.0000 H   0  0  0  0  0  0  0  0  0  0  0  0
   11.5957   -5.5700    0.0000 H   0  0  0  0  0  0  0  0  0  0  0  0
    5.1350  -10.2150    0.0000 H   0  0  0  0  0  0  0  0  0  0  0  0
    5.6720   -9.2850    0.0000 H   0  0  0  0  0  0  0  0  0  0  0  0
    3.4030  -10.2150    0.0000 H   0  0  0  0  0  0  0  0  0  0  0  0
    2.8660   -9.2850    0.0000 H   0  0  0  0  0  0  0  0  0  0  0  0
   11.8078    0.7973    0.0000 H   0  0  0  0  0  0  0  0  0  0  0  0
   11.4092    1.4876    0.0000 H   0  0  0  0  0  0  0  0  0  0  0  0
   12.5382   -4.9935    0.0000 H   0  0  0  0  0  0  0  0  0  0  0  0
   13.5492   -0.0950    0.0000 H   0  0  0  0  0  0  0  0  0  0  0  0
   12.3923    0.5950    0.0000 H   0  0  0  0  0  0  0  0  0  0  0  0
   13.4662   -2.7850    0.0000 H   0  0  0  0  0  0  0  0  0  0  0  0
   10.3312    2.0250    0.0000 H   0  0  0  0  0  0  0  0  0  0  0  0
   14.1938    1.8800    0.0000 H   0  0  0  0  0  0  0  0  0  0  0  0
   13.3967    1.8800    0.0000 H   0  0  0  0  0  0  0  0  0  0  0  0
   14.4142   -3.6310    0.0000 H   0  0  0  0  0  0  0  0  0  0  0  0
   13.9731   -3.0010    0.0000 H   0  0  0  0  0  0  0  0  0  0  0  0
   12.3923    3.2150    0.0000 H   0  0  0  0  0  0  0  0  0  0  0  0
   12.3092   -2.0950    0.0000 H   0  0  0  0  0  0  0  0  0  0  0  0
    6.0010    3.5250    0.0000 H   0  0  0  0  0  0  0  0  0  0  0  0
    4.2690    3.5250    0.0000 H   0  0  0  0  0  0  0  0  0  0  0  0
    3.7320    2.5950    0.0000 H   0  0  0  0  0  0  0  0  0  0  0  0
    6.5380    2.5950    0.0000 H   0  0  0  0  0  0  0  0  0  0  0  0
   11.5263    2.7150    0.0000 H   0  0  0  0  0  0  0  0  0  0  0  0
   15.1982   -2.4050    0.0000 H   0  0  0  0  0  0  0  0  0  0  0  0
   13.3967    1.9300    0.0000 H   0  0  0  0  0  0  0  0  0  0  0  0
   14.1938    1.9300    0.0000 H   0  0  0  0  0  0  0  0  0  0  0  0
   12.6002    5.0950    0.0000 H   0  0  0  0  0  0  0  0  0  0  0  0
   14.0507   -2.9873    0.0000 H   0  0  0  0  0  0  0  0  0  0  0  0
   14.4492   -3.6776    0.0000 H   0  0  0  0  0  0  0  0  0  0  0  0
   16.9303    0.2150    0.0000 H   0  0  0  0  0  0  0  0  0  0  0  0
   11.5263    4.0950    0.0000 H   0  0  0  0  0  0  0  0  0  0  0  0
   16.0643   -1.9050    0.0000 H   0  0  0  0  0  0  0  0  0  0  0  0
   13.1413    5.3224    0.0000 H   0  0  0  0  0  0  0  0  0  0  0  0
   13.5398    6.0127    0.0000 H   0  0  0  0  0  0  0  0  0  0  0  0
   17.0039    0.7973    0.0000 H   0  0  0  0  0  0  0  0  0  0  0  0
   16.6054    1.4876    0.0000 H   0  0  0  0  0  0  0  0  0  0  0  0
   15.3836   -4.5233    0.0000 H   0  0  0  0  0  0  0  0  0  0  0  0
   12.6203   -5.0106    0.0000 H   0  0  0  0  0  0  0  0  0  0  0  0
   12.7172    7.4876    0.0000 H   0  0  0  0  0  0  0  0  0  0  0  0
   12.3187    6.7973    0.0000 H   0  0  0  0  0  0  0  0  0  0  0  0
   17.2594   -1.2150    0.0000 H   0  0  0  0  0  0  0  0  0  0  0  0
   14.1244    4.2150    0.0000 H   0  0  0  0  0  0  0  0  0  0  0  0
   15.5273    1.7850    0.0000 H   0  0  0  0  0  0  0  0  0  0  0  0
   15.6649   -6.1187    0.0000 H   0  0  0  0  0  0  0  0  0  0  0  0
   12.9016   -6.6060    0.0000 H   0  0  0  0  0  0  0  0  0  0  0  0
   14.0073    6.8224    0.0000 H   0  0  0  0  0  0  0  0  0  0  0  0
   14.4058    7.5127    0.0000 H   0  0  0  0  0  0  0  0  0  0  0  0
   18.9914    0.0250    0.0000 H   0  0  0  0  0  0  0  0  0  0  0  0
   14.4240   -7.1600    0.0000 H   0  0  0  0  0  0  0  0  0  0  0  0
   16.5698   -2.5818    0.0000 H   0  0  0  0  0  0  0  0  0  0  0  0
   15.5273    5.0250    0.0000 H   0  0  0  0  0  0  0  0  0  0  0  0
   16.9303    2.5950    0.0000 H   0  0  0  0  0  0  0  0  0  0  0  0
   18.3808   -1.4873    0.0000 H   0  0  0  0  0  0  0  0  0  0  0  0
   18.7794   -2.1776    0.0000 H   0  0  0  0  0  0  0  0  0  0  0  0
   10.6603    7.2150    0.0000 H   0  0  0  0  0  0  0  0  0  0  0  0
   11.7341    7.2150    0.0000 H   0  0  0  0  0  0  0  0  0  0  0  0
   17.7266   -3.8666    0.0000 H   0  0  0  0  0  0  0  0  0  0  0  0
   16.8622   -5.3638    0.0000 H   0  0  0  0  0  0  0  0  0  0  0  0
   20.4680   -2.2027    0.0000 H   0  0  0  0  0  0  0  0  0  0  0  0
   20.0695   -1.5124    0.0000 H   0  0  0  0  0  0  0  0  0  0  0  0
   20.3944   -0.4050    0.0000 H   0  0  0  0  0  0  0  0  0  0  0  0
   19.8574    0.5250    0.0000 H   0  0  0  0  0  0  0  0  0  0  0  0
   17.2594    5.0250    0.0000 H   0  0  0  0  0  0  0  0  0  0  0  0
   20.4135   -4.1319    0.0000 H   0  0  0  0  0  0  0  0  0  0  0  0
   21.2604   -3.9050    0.0000 H   0  0  0  0  0  0  0  0  0  0  0  0
   21.0335   -3.0581    0.0000 H   0  0  0  0  0  0  0  0  0  0  0  0
   15.1982   10.2150    0.0000 H   0  0  0  0  0  0  0  0  0  0  0  0
   14.1244   10.2150    0.0000 H   0  0  0  0  0  0  0  0  0  0  0  0
   16.0643    8.7150    0.0000 H   0  0  0  0  0  0  0  0  0  0  0  0
   15.5273    7.7850    0.0000 H   0  0  0  0  0  0  0  0  0  0  0  0
  1  2  1  0  0  0  0
  1 87  1  0  0  0  0
  2101  1  0  0  0  0
  3122  1  0  0  0  0
  3124  1  0  0  0  0
  4 54  2  0  0  0  0
  5 55  2  0  0  0  0
  6 61  2  0  0  0  0
  7 63  2  0  0  0  0
  8 67  1  0  0  0  0
  8163  1  0  0  0  0
  9 67  2  0  0  0  0
 10 68  2  0  0  0  0
 11 73  2  0  0  0  0
 12 77  2  0  0  0  0
 13 81  1  0  0  0  0
 13181  1  0  0  0  0
 14 82  2  0  0  0  0
 15 85  2  0  0  0  0
 16 88  2  0  0  0  0
 17 93  2  0  0  0  0
 18 95  2  0  0  0  0
 19102  2  0  0  0  0
 20109  2  0  0  0  0
 21113  2  0  0  0  0
 22119  1  0  0  0  0
 22232  1  0  0  0  0
 23 50  1  0  0  0  0
 23 53  1  0  0  0  0
 23 54  1  0  0  0  0
 24 55  1  0  0  0  0
 24 58  1  0  0  0  0
 24135  1  0  0  0  0
 25 56  1  0  0  0  0
 25 63  1  0  0  0  0
 25137  1  0  0  0  0
 26 61  1  0  0  0  0
 26 64  1  0  0  0  0
 26145  1  0  0  0  0
 27 62  1  0  0  0  0
 27 76  2  0  0  0  0
 28 68  1  0  0  0  0
 28 69  1  0  0  0  0
 28154  1  0  0  0  0
 29 65  1  0  0  0  0
 29 77  1  0  0  0  0
 29155  1  0  0  0  0
 30 73  1  0  0  0  0
 30 79  1  0  0  0  0
 30167  1  0  0  0  0
 31 76  1  0  0  0  0
 31173  1  0  0  0  0
 31174  1  0  0  0  0
 32 76  1  0  0  0  0
 32171  1  0  0  0  0
 32172  1  0  0  0  0
 33 75  1  0  0  0  0
 33 83  2  0  0  0  0
 34 80  1  0  0  0  0
 34 85  1  0  0  0  0
 34177  1  0  0  0  0
 35 82  1  0  0  0  0
 35 84  1  0  0  0  0
 35178  1  0  0  0  0
 36 86  1  0  0  0  0
 36 93  1  0  0  0  0
 36187  1  0  0  0  0
 37 83  1  0  0  0  0
 37189  1  0  0  0  0
 37190  1  0  0  0  0
 38 83  1  0  0  0  0
 38188  1  0  0  0  0
 38191  1  0  0  0  0
 39 88  1  0  0  0  0
 90 39  1  6  0  0  0
 39192  1  0  0  0  0
 40 95  1  0  0  0  0
 97 40  1  6  0  0  0
 40200  1  0  0  0  0
 41 91  1  0  0  0  0
 41102  1  0  0  0  0
 41201  1  0  0  0  0
 98 42  1  6  0  0  0
 42113  1  0  0  0  0
 42210  1  0  0  0  0
 43106  1  0  0  0  0
 43121  2  0  0  0  0
 44109  1  0  0  0  0
 44224  1  0  0  0  0
 44225  1  0  0  0  0
 45116  1  0  0  0  0
 45121  1  0  0  0  0
 45226  1  0  0  0  0
 46112  1  0  0  0  0
 46123  2  0  0  0  0
114 47  1  1  0  0  0
 47230  1  0  0  0  0
 47231  1  0  0  0  0
 48123  1  0  0  0  0
 48236  1  0  0  0  0
 48237  1  0  0  0  0
 49123  1  0  0  0  0
 49238  1  0  0  0  0
 49239  1  0  0  0  0
 50 51  1  0  0  0  0
 50 55  1  0  0  0  0
 50125  1  6  0  0  0
 51 52  1  0  0  0  0
 51126  1  0  0  0  0
 51127  1  0  0  0  0
 52 53  1  0  0  0  0
 52128  1  0  0  0  0
 52129  1  0  0  0  0
 53130  1  0  0  0  0
 53131  1  0  0  0  0
 54 56  1  0  0  0  0
 56 57  1  6  0  0  0
 56132  1  0  0  0  0
 57 59  1  0  0  0  0
 57133  1  0  0  0  0
 57134  1  0  0  0  0
 58 60  1  6  0  0  0
 58 61  1  0  0  0  0
 58136  1  0  0  0  0
 59 62  1  0  0  0  0
 59138  1  0  0  0  0
 59139  1  0  0  0  0
 60 67  1  0  0  0  0
 60140  1  0  0  0  0
 60141  1  0  0  0  0
 62142  1  0  0  0  0
 62143  1  0  0  0  0
 63 65  1  0  0  0  0
 64 66  1  1  0  0  0
 64 68  1  0  0  0  0
 64144  1  0  0  0  0
 65146  1  0  0  0  0
 65147  1  0  0  0  0
 66 71  1  0  0  0  0
 66148  1  0  0  0  0
 66149  1  0  0  0  0
 69 70  1  0  0  0  0
 69 73  1  0  0  0  0
 69150  1  1  0  0  0
 70 72  1  0  0  0  0
 70 74  1  1  0  0  0
 70151  1  0  0  0  0
 71 75  1  0  0  0  0
 71152  1  0  0  0  0
 71153  1  0  0  0  0
 72 78  1  0  0  0  0
 72156  1  0  0  0  0
 72157  1  0  0  0  0
 74158  1  0  0  0  0
 74159  1  0  0  0  0
 74160  1  0  0  0  0
 75161  1  0  0  0  0
 75162  1  0  0  0  0
 77 80  1  0  0  0  0
 78164  1  0  0  0  0
 78165  1  0  0  0  0
 78166  1  0  0  0  0
 79 81  1  1  0  0  0
 79 82  1  0  0  0  0
 79168  1  0  0  0  0
 80169  1  0  0  0  0
 80170  1  0  0  0  0
 81175  1  0  0  0  0
 81176  1  0  0  0  0
 84 87  1  0  0  0  0
 84 88  1  6  0  0  0
 84179  1  0  0  0  0
 85 86  1  0  0  0  0
 86 89  1  6  0  0  0
 86180  1  0  0  0  0
 87182  1  0  0  0  0
 87183  1  0  0  0  0
 89 94  1  0  0  0  0
 89184  1  0  0  0  0
 89185  1  0  0  0  0
 90 92  1  0  0  0  0
 90 95  1  0  0  0  0
 90186  1  0  0  0  0
 91 93  1  0  0  0  0
 91 96  1  1  0  0  0
 91193  1  0  0  0  0
 92 99  1  0  0  0  0
 92194  1  0  0  0  0
 92195  1  0  0  0  0
 94103  2  0  0  0  0
 94104  1  0  0  0  0
 96106  1  0  0  0  0
 96197  1  0  0  0  0
 96198  1  0  0  0  0
 97100  1  0  0  0  0
 97109  1  0  0  0  0
 97196  1  0  0  0  0
 98101  1  0  0  0  0
 98102  1  0  0  0  0
 98199  1  0  0  0  0
 99107  2  0  0  0  0
 99108  1  0  0  0  0
100105  1  0  0  0  0
100202  1  0  0  0  0
100203  1  0  0  0  0
101204  1  0  0  0  0
101205  1  0  0  0  0
103110  1  0  0  0  0
103206  1  0  0  0  0
104111  2  0  0  0  0
104207  1  0  0  0  0
105112  1  0  0  0  0
105208  1  0  0  0  0
105209  1  0  0  0  0
106116  2  0  0  0  0
107117  1  0  0  0  0
107211  1  0  0  0  0
108118  2  0  0  0  0
108212  1  0  0  0  0
110115  2  0  0  0  0
110213  1  0  0  0  0
111115  1  0  0  0  0
111214  1  0  0  0  0
112215  1  0  0  0  0
112216  1  0  0  0  0
113114  1  0  0  0  0
114120  1  0  0  0  0
114217  1  0  0  0  0
115218  1  0  0  0  0
116219  1  0  0  0  0
117119  2  0  0  0  0
117220  1  0  0  0  0
118119  1  0  0  0  0
118221  1  0  0  0  0
120122  1  0  0  0  0
120222  1  0  0  0  0
120223  1  0  0  0  0
121227  1  0  0  0  0
122228  1  0  0  0  0
122229  1  0  0  0  0
124233  1  0  0  0  0
124234  1  0  0  0  0
124235  1  0  0  0  0
M  END
> <PUBCHEM_COMPOUND_CID>
44457706

> <PUBCHEM_COMPOUND_CANONICALIZED>
0

> <PUBCHEM_CACTVS_COMPLEXITY>
3680

> <PUBCHEM_CACTVS_HBOND_ACCEPTOR>
30

> <PUBCHEM_CACTVS_HBOND_DONOR>
25

> <PUBCHEM_CACTVS_ROTATABLE_BOND>
33

> <PUBCHEM_CACTVS_SUBSKEYS>
AAADcfB//gBgAAAAAAAAAAAAAAAAAWLAAAAwYAAAAAAAAAAB0AAAHgQQCAAADSzl3ga/npfJkgioAzX3fAACgC2xMrAJ2YG+eIiKfj7i2TOUcAAu9hPY2Ce/yaCOIAAAAAAAAABAAAAAAAAAAAAAAAAAAA==

> <PUBCHEM_NIST_INCHI>
InChI=1S/C75H115N27O19S3/c1-4-39(2)59-71(120)98-52(35-103)67(116)100-54(69(118)95-49(29-41-18-20-43(104)21-19-41)64(113)92-45(60(77)109)14-8-23-85-73(78)79)37-124-123-36-53(99-61(110)44(76)22-27-122-3)68(117)96-50(30-42-32-84-38-90-42)65(114)94-48(28-40-12-6-5-7-13-40)62(111)89-33-56(105)88-34-57(106)91-47(16-10-25-87-75(82)83)72(121)102-26-11-17-55(102)70(119)97-51(31-58(107)108)66(115)93-46(63(112)101-59)15-9-24-86-74(80)81/h5-7,12-13,18-21,32,38-39,44-55,59,103-104H,4,8-11,14-17,22-31,33-37,76H2,1-3H3,(H2,77,109)(H,84,90)(H,88,105)(H,89,111)(H,91,106)(H,92,113)(H,93,115)(H,94,114)(H,95,118)(H,96,117)(H,97,119)(H,98,120)(H,99,110)(H,100,116)(H,101,112)(H,107,108)(H4,78,79,85)(H4,80,81,86)(H4,82,83,87)/t39-,44-,45-,46-,47+,48+,49-,50-,51+,52-,53-,54-,55-,59+/m0/s1

> <PUBCHEM_NIST_INCHIKEY>
LTIAFVRYJYNUGX-YOKBCVBISA-N

> <PUBCHEM_XLOGP3_AA>
-8.4

> <PUBCHEM_EXACT_MASS>
1793.802467

> <PUBCHEM_MOLECULAR_FORMULA>
C75H115N27O19S3

> <PUBCHEM_MOLECULAR_WEIGHT>
1795.0801

> <PUBCHEM_OPENEYE_CAN_SMILES>
CCC(C)C1C(=O)NC(C(=O)NC(CSSCC(C(=O)NC(C(=O)NC(C(=O)NCC(=O)NCC(=O)NC(C(=O)N2CCCC2C(=O)NC(C(=O)NC(C(=O)N1)CCCN=C(N)N)CC(=O)O)CCCN=C(N)N)CC3=CC=CC=C3)CC4=CNC=N4)NC(=O)C(CCSC)N)C(=O)NC(CC5=CC=C(C=C5)O)C(=O)NC(CCCN=C(N)N)C(=O)N)CO

> <PUBCHEM_OPENEYE_ISO_SMILES>
CC[C@H](C)[C@@H]1C(=O)N[C@H](C(=O)N[C@@H](CSSC[C@@H](C(=O)N[C@H](C(=O)N[C@@H](C(=O)NCC(=O)NCC(=O)N[C@@H](C(=O)N2CCC[C@H]2C(=O)N[C@@H](C(=O)N[C@H](C(=O)N1)CCCN=C(N)N)CC(=O)O)CCCN=C(N)N)CC3=CC=CC=C3)CC4=CNC=N4)NC(=O)[C@H](CCSC)N)C(=O)N[C@@H](CC5=CC=C(C=C5)O)C(=O)N[C@@H](CCCN=C(N)N)C(=O)N)CO

> <PUBCHEM_CACTVS_TPSA>
843

> <PUBCHEM_MONOISOTOPIC_WEIGHT>
1793.802467

> <PUBCHEM_TOTAL_CHARGE>
0

> <PUBCHEM_HEAVY_ATOM_COUNT>
124

> <PUBCHEM_ATOM_DEF_STEREO_COUNT>
14

> <PUBCHEM_ATOM_UDEF_STEREO_COUNT>
0

> <PUBCHEM_BOND_DEF_STEREO_COUNT>
0

> <PUBCHEM_BOND_UDEF_STEREO_COUNT>
0

> <PUBCHEM_ISOTOPIC_ATOM_COUNT>
0

> <PUBCHEM_COMPONENT_COUNT>
1

> <PUBCHEM_CACTVS_TAUTO_COUNT>
1001

> <PUBCHEM_COORDINATE_TYPE>
1
3

> <PUBCHEM_BONDANNOTATIONS>
103  110  8
104  111  8
106  116  8
107  117  8
108  118  8
110  115  8
111  115  8
117  119  8
118  119  8
90  39  6
97  40  6
98  42  6
43  106  8
43  121  8
45  116  8
45  121  8
114  47  5
50  125  6
56  57  6
58  60  6
64  66  5
69  150  5
70  74  5
79  81  5
84  88  6
86  89  6
91  96  5
94  103  8
94  104  8
99  107  8
99  108  8

$$$$

