5957
  -OEChem-10021005353D

 47 49  0     1  0  0  0  0  0999 V2000
    2.4265   -1.6857   -1.6031 P   0  0  1  0  0  0  0  0  0  0  0  0
    3.9689    0.2041    0.0446 P   0  0  2  0  0  0  0  0  0  0  0  0
    2.2747    1.3030    2.1955 P   0  0  0  0  0  0  0  0  0  0  0  0
   -1.0178   -1.3778    0.9927 O   0  0  0  0  0  0  0  0  0  0  0  0
   -4.3652   -2.3641    0.1309 O   0  0  0  0  0  0  0  0  0  0  0  0
   -2.5758   -3.9668    1.4015 O   0  0  0  0  0  0  0  0  0  0  0  0
    1.3208   -1.9591   -0.4537 O   0  0  0  0  0  0  0  0  0  0  0  0
    3.7219   -1.1490   -0.8007 O   0  0  0  0  0  0  0  0  0  0  0  0
    2.8767   -3.1624   -2.0870 O   0  0  0  0  0  0  0  0  0  0  0  0
    1.9724   -0.7820   -2.7124 O   0  0  0  0  0  0  0  0  0  0  0  0
    2.7556    0.2051    1.1116 O   0  0  0  0  0  0  0  0  0  0  0  0
    3.5653    1.3830   -0.9853 O   0  0  0  0  0  0  0  0  0  0  0  0
    5.3343    0.3384    0.6516 O   0  0  0  0  0  0  0  0  0  0  0  0
    1.7777    2.5340    1.2735 O   0  0  0  0  0  0  0  0  0  0  0  0
    0.8978    0.6865    2.7749 O   0  0  0  0  0  0  0  0  0  0  0  0
    3.3046    1.6552    3.2283 O   0  0  0  0  0  0  0  0  0  0  0  0
   -2.6388    0.2831    0.4989 N   0  0  0  0  0  0  0  0  0  0  0  0
   -3.6007    2.2916    0.3624 N   0  0  0  0  0  0  0  0  0  0  0  0
   -0.7069    0.6511   -0.9276 N   0  0  0  0  0  0  0  0  0  0  0  0
   -0.6820    2.9223   -1.8204 N   0  0  0  0  0  0  0  0  0  0  0  0
   -2.3836    4.5242   -1.3048 N   0  0  0  0  0  0  0  0  0  0  0  0
   -2.9897   -2.1242   -0.0859 C   0  0  2  0  0  0  0  0  0  0  0  0
   -2.1230   -3.3336    0.2049 C   0  0  1  0  0  0  0  0  0  0  0  0
   -2.4294   -1.1072    0.8967 C   0  0  1  0  0  0  0  0  0  0  0  0
   -0.7601   -2.7011    0.4686 C   0  0  1  0  0  0  0  0  0  0  0  0
    0.0836   -2.5627   -0.7909 C   0  0  0  0  0  0  0  0  0  0  0  0
   -1.8410    1.0320   -0.3205 C   0  0  0  0  0  0  0  0  0  0  0  0
   -3.6828    1.0847    0.8822 C   0  0  0  0  0  0  0  0  0  0  0  0
   -2.4541    2.2726   -0.3915 C   0  0  0  0  0  0  0  0  0  0  0  0
   -1.8319    3.2377   -1.1771 C   0  0  0  0  0  0  0  0  0  0  0  0
   -0.1981    1.6671   -1.6580 C   0  0  0  0  0  0  0  0  0  0  0  0
   -2.8499   -1.7973   -1.1228 H   0  0  0  0  0  0  0  0  0  0  0  0
   -2.1212   -4.0831   -0.5917 H   0  0  0  0  0  0  0  0  0  0  0  0
   -2.8607   -1.2132    1.8999 H   0  0  0  0  0  0  0  0  0  0  0  0
   -0.1966   -3.2397    1.2389 H   0  0  0  0  0  0  0  0  0  0  0  0
   -0.4109   -1.9406   -1.5424 H   0  0  0  0  0  0  0  0  0  0  0  0
    0.2771   -3.5479   -1.2272 H   0  0  0  0  0  0  0  0  0  0  0  0
   -4.4943   -2.5765    1.0706 H   0  0  0  0  0  0  0  0  0  0  0  0
   -3.4307   -4.3847    1.2014 H   0  0  0  0  0  0  0  0  0  0  0  0
   -4.4692    0.7349    1.5371 H   0  0  0  0  0  0  0  0  0  0  0  0
    0.7256    1.4585   -2.1836 H   0  0  0  0  0  0  0  0  0  0  0  0
   -3.2418    4.7619   -0.8261 H   0  0  0  0  0  0  0  0  0  0  0  0
   -1.9130    5.2080   -1.8817 H   0  0  0  0  0  0  0  0  0  0  0  0
    2.3128   -3.6443   -2.7289 H   0  0  0  0  0  0  0  0  0  0  0  0
    4.2015    1.6396   -1.6863 H   0  0  0  0  0  0  0  0  0  0  0  0
    1.5146    3.3749    1.7047 H   0  0  0  0  0  0  0  0  0  0  0  0
    0.4457    1.1452    3.5146 H   0  0  0  0  0  0  0  0  0  0  0  0
  1  7  1  0  0  0  0
  1  8  1  0  0  0  0
  1  9  1  0  0  0  0
  1 10  2  0  0  0  0
  2  8  1  0  0  0  0
  2 11  1  0  0  0  0
  2 12  1  0  0  0  0
  2 13  2  0  0  0  0
  3 11  1  0  0  0  0
  3 14  1  0  0  0  0
  3 15  1  0  0  0  0
  3 16  2  0  0  0  0
  4 24  1  0  0  0  0
  4 25  1  0  0  0  0
  5 22  1  0  0  0  0
  5 38  1  0  0  0  0
  6 23  1  0  0  0  0
  6 39  1  0  0  0  0
  7 26  1  0  0  0  0
  9 44  1  0  0  0  0
 12 45  1  0  0  0  0
 14 46  1  0  0  0  0
 15 47  1  0  0  0  0
 17 24  1  0  0  0  0
 17 27  1  0  0  0  0
 17 28  1  0  0  0  0
 18 28  2  0  0  0  0
 18 29  1  0  0  0  0
 19 27  2  0  0  0  0
 19 31  1  0  0  0  0
 20 30  1  0  0  0  0
 20 31  2  0  0  0  0
 21 30  1  0  0  0  0
 21 42  1  0  0  0  0
 21 43  1  0  0  0  0
 22 23  1  0  0  0  0
 22 24  1  0  0  0  0
 22 32  1  0  0  0  0
 23 25  1  0  0  0  0
 23 33  1  0  0  0  0
 24 34  1  0  0  0  0
 25 26  1  0  0  0  0
 25 35  1  0  0  0  0
 26 36  1  0  0  0  0
 26 37  1  0  0  0  0
 27 29  1  0  0  0  0
 28 40  1  0  0  0  0
 29 30  2  0  0  0  0
 31 41  1  0  0  0  0
M  END
> <PUBCHEM_COMPOUND_CID>
5957

> <PUBCHEM_CONFORMER_RMSD>
1.2

> <PUBCHEM_CONFORMER_DIVERSEORDER>
1
178
327
353
2
124
378
131
304
110
25
370
182
318
344
86
279
367
291
92
52
121
45
358
316
330
99
23
155
303
374
169
200
48
241
18
60
278
216
202
376
347
276
125
101
176
95
222
180
313
76
302
53
62
290
373
109
283
363
145
150
236
165
107
266
122
192
20
244
288
355
152
343
280
111
106
112
388
235
254
251
128
34
263
163
385
309
15
269
66
281
257
297
218
144
126
337
190
348
120
248
69
340
167
328
33
252
305
57
133
130
123
226
300
308
74
40
311
232
41
149
55
369
312
245
345
196
156
94
204
98
134
213
224
197
88
306
93
239
282
22
65
319
142
223
17
116
187
138
4
19
72
264
284
47
237
289
30
151
324
250
89
114
38
359
170
29
177
49
366
229
285
372
352
97
158
90
364
6
231
43
335
194
286
220
346
181
242
135
205
331
338
162
209
193
141
172
238
7
307
147
143
186
75
9
271
393
240
26
84
174
392
221
161
157
228
3
315
8
323
127
58
132
46
27
104
261
36
265
267
360
44
61
377
77
50
160
199
217
294
203
63
28
379
166
137
198
146
256
292
191
81
129
386
273
119
159
56
349
356
35
351
381
357
140
12
183
175
332
39
243
91
287
277
73
10
334
255
341
336
227
103
5
219
320
70
299
21
362
42
184
274
391
71
51
342
230
310
115
339
14
260
105
298
54
195
354
249
270
64
208
225
321
85
80
375
108
233
37
246
371
136
24
211
82
148
390
368
380
382
31
322
272
164
325
32
333
13
275
259
234
16
301
214
383
113
117
67
215
262
389
295
96
384
247
296
118
59
79
102
168
78
268
258
361
387
206
154
153
139
201
68
207
100
185
173
179
326
314
87
83
293
189
212
350
210
11
317
188
394
253
171
329
365

> <PUBCHEM_MMFF94_PARTIAL_CHARGES>
41
1 1.51
10 -0.7
11 -0.54
12 -0.77
13 -0.7
14 -0.77
15 -0.77
16 -0.7
17 0.05
18 -0.57
19 -0.57
2 1.51
20 -0.62
21 -0.9
22 0.28
23 0.28
24 0.54
25 0.28
26 0.28
27 0.11
28 0.04
29 0.23
3 1.51
30 0.41
31 0.47
38 0.4
39 0.4
4 -0.56
40 0.15
41 0.15
42 0.4
43 0.4
44 0.5
45 0.5
46 0.5
47 0.5
5 -0.68
6 -0.68
7 -0.55
8 -0.54
9 -0.77

> <PUBCHEM_EFFECTIVE_ROTOR_COUNT>
9

> <PUBCHEM_PHARMACOPHORE_FEATURES>
21
1 10 acceptor
1 12 acceptor
1 13 acceptor
1 14 acceptor
1 15 acceptor
1 16 acceptor
1 21 cation
1 21 donor
1 4 acceptor
1 5 acceptor
1 5 donor
1 6 acceptor
1 6 donor
1 9 acceptor
3 17 18 28 cation
3 17 19 27 cation
3 19 20 31 cation
4 3 14 15 16 anion
5 17 18 27 28 29 rings
5 4 22 23 24 25 rings
6 19 20 27 29 30 31 rings

> <PUBCHEM_HEAVY_ATOM_COUNT>
31

> <PUBCHEM_ATOM_DEF_STEREO_COUNT>
4

> <PUBCHEM_ATOM_UDEF_STEREO_COUNT>
0

> <PUBCHEM_BOND_DEF_STEREO_COUNT>
0

> <PUBCHEM_BOND_UDEF_STEREO_COUNT>
0

> <PUBCHEM_ISOTOPIC_ATOM_COUNT>
0

> <PUBCHEM_COMPONENT_COUNT>
1

> <PUBCHEM_CACTVS_TAUTO_COUNT>
3

> <PUBCHEM_CONFORMER_ID>
0000174500000001

> <PUBCHEM_MMFF94_ENERGY>
-7.7923

> <PUBCHEM_FEATURE_SELFOVERLAP>
107.236

> <PUBCHEM_SHAPE_FINGERPRINT>
10165383 225 18265324200108359769
11370993 70 18126001813161262356
12553582 1 17982698958288960687
12633257 1 18408325509885241536
12788726 201 18059563646895739916
13402501 40 18260828206936323650
14081887 123 18411971485952787662
14251757 17 18121210150404123484
15840311 113 17605245486430759371
20600515 1 17555767346139768979
23536364 44 16965459739676207534
23557571 272 18340770342943752811
23559900 14 18192989318718586909
238 59 17532679959977979620
3052486 1 18201716249729186823
3187 122 18196661691818515275
35225 105 17414752944157951148
3524813 1 18051117383207486959
508706 21 18410011052731710502
81228 2 18341043030723214107

> <PUBCHEM_SHAPE_MULTIPOLES>
548.31
7.42
5.05
2.35
2.48
-0.89
-0.78
-0.72
5.69
-2.17
-4.82
12.64
14.23
-0.79

> <PUBCHEM_SHAPE_SELFOVERLAP>
1118.923

> <PUBCHEM_SHAPE_VOLUME>
319.7

> <PUBCHEM_COORDINATE_TYPE>
2
5
255

$$$$

