25245769
  -OEChem-10011018163D

 75 78  0     0  0  0  0  0  0999 V2000
   -4.0315    1.8713   -4.8520 O   0  5  0  0  0  0  0  0  0  0  0  0
   -4.8136    3.4802   -3.4305 O   0  0  0  0  0  0  0  0  0  0  0  0
    4.2925   -0.4709    0.1830 O   0  0  0  0  0  0  0  0  0  0  0  0
   -5.7716   -1.0679    4.6025 O   0  5  0  0  0  0  0  0  0  0  0  0
   -6.8373   -1.4855    2.6265 O   0  0  0  0  0  0  0  0  0  0  0  0
    3.2957   -0.9009   -2.5883 O   0  0  0  0  0  0  0  0  0  0  0  0
   -0.4725    1.7924    0.8931 N   0  0  0  0  0  0  0  0  0  0  0  0
   -1.0498   -1.2539   -0.1472 N   0  0  0  0  0  0  0  0  0  0  0  0
    2.6394    1.1717    0.4450 N   0  0  0  0  0  0  0  0  0  0  0  0
    1.3607   -1.8500   -1.7167 N   0  0  0  0  0  0  0  0  0  0  0  0
   -1.7603    2.7788   -0.6236 C   0  0  0  0  0  0  0  0  0  0  0  0
   -1.6651    1.6977    0.2246 C   0  0  0  0  0  0  0  0  0  0  0  0
   -3.0728   -1.8988    0.6384 C   0  0  0  0  0  0  0  0  0  0  0  0
   -2.2221   -0.7386    0.3456 C   0  0  0  0  0  0  0  0  0  0  0  0
   -0.5835    3.5505   -0.4594 C   0  0  0  0  0  0  0  0  0  0  0  0
   -2.3868   -3.0214    0.3156 C   0  0  0  0  0  0  0  0  0  0  0  0
    0.1951    2.9172    0.4840 C   0  0  0  0  0  0  0  0  0  0  0  0
   -2.5360    0.5492    0.5260 C   0  0  0  0  0  0  0  0  0  0  0  0
   -2.8834    3.0796   -1.5365 C   0  0  0  0  0  0  0  0  0  0  0  0
   -1.0695   -2.6248   -0.1974 C   0  0  0  0  0  0  0  0  0  0  0  0
   -4.4482   -1.7686    1.1961 C   0  0  0  0  0  0  0  0  0  0  0  0
   -0.2526    4.8040   -1.1695 C   0  0  0  0  0  0  0  0  0  0  0  0
    1.4469    3.1856    1.0613 C   0  0  0  0  0  0  0  0  0  0  0  0
   -2.8681    2.2568   -2.8378 C   0  0  0  0  0  0  0  0  0  0  0  0
   -2.8124   -4.4446    0.4272 C   0  0  0  0  0  0  0  0  0  0  0  0
   -4.4563   -1.4802    2.6951 C   0  0  0  0  0  0  0  0  0  0  0  0
   -0.0982   -3.4407   -0.6224 C   0  0  0  0  0  0  0  0  0  0  0  0
    2.5754    2.3928    1.0498 C   0  0  0  0  0  0  0  0  0  0  0  0
    1.1678   -2.9797   -1.1120 C   0  0  0  0  0  0  0  0  0  0  0  0
    3.8836    2.6402    1.6361 C   0  0  0  0  0  0  0  0  0  0  0  0
    4.6901    1.5877    1.3789 C   0  0  0  0  0  0  0  0  0  0  0  0
    2.3756   -3.7974   -0.9514 C   0  0  0  0  0  0  0  0  0  0  0  0
   -4.0237    2.5657   -3.7957 C   0  0  0  0  0  0  0  0  0  0  0  0
    3.8898    0.6036    0.5927 C   0  0  0  0  0  0  0  0  0  0  0  0
   -5.8273   -1.3279    3.3657 C   0  0  0  0  0  0  0  0  0  0  0  0
    3.3315   -3.0517   -1.5203 C   0  0  0  0  0  0  0  0  0  0  0  0
    4.2934    3.8049    2.3777 C   0  0  0  0  0  0  0  0  0  0  0  0
    6.1048    1.2999    1.7274 C   0  0  0  0  0  0  0  0  0  0  0  0
    2.7009   -1.8014   -2.0164 C   0  0  0  0  0  0  0  0  0  0  0  0
    2.4379   -5.1266   -0.2977 C   0  0  0  0  0  0  0  0  0  0  0  0
    4.7247   -3.3342   -1.6652 C   0  0  0  0  0  0  0  0  0  0  0  0
    5.0659    3.7501    3.4630 C   0  0  0  0  0  0  0  0  0  0  0  0
    5.4708   -3.9140   -0.7154 C   0  0  0  0  0  0  0  0  0  0  0  0
   -3.5268    0.8251    0.8767 H   0  0  0  0  0  0  0  0  0  0  0  0
   -2.8876    4.1484   -1.7847 H   0  0  0  0  0  0  0  0  0  0  0  0
   -3.8305    2.9005   -1.0099 H   0  0  0  0  0  0  0  0  0  0  0  0
   -0.1381    1.1324    1.5833 H   0  0  0  0  0  0  0  0  0  0  0  0
   -5.0180   -2.6870    1.0108 H   0  0  0  0  0  0  0  0  0  0  0  0
   -5.0008   -0.9888    0.6569 H   0  0  0  0  0  0  0  0  0  0  0  0
   -0.2662   -0.6923   -0.4435 H   0  0  0  0  0  0  0  0  0  0  0  0
    1.5358    4.1619    1.5350 H   0  0  0  0  0  0  0  0  0  0  0  0
   -0.3776    4.6813   -2.2504 H   0  0  0  0  0  0  0  0  0  0  0  0
    0.7818    5.1156   -0.9930 H   0  0  0  0  0  0  0  0  0  0  0  0
   -0.9084    5.6152   -0.8370 H   0  0  0  0  0  0  0  0  0  0  0  0
   -1.9277    2.4366   -3.3741 H   0  0  0  0  0  0  0  0  0  0  0  0
   -2.9041    1.1861   -2.6012 H   0  0  0  0  0  0  0  0  0  0  0  0
   -2.8343   -4.9186   -0.5595 H   0  0  0  0  0  0  0  0  0  0  0  0
   -3.8097   -4.5466    0.8635 H   0  0  0  0  0  0  0  0  0  0  0  0
   -2.1222   -5.0040    1.0674 H   0  0  0  0  0  0  0  0  0  0  0  0
   -3.9329   -2.2908    3.2197 H   0  0  0  0  0  0  0  0  0  0  0  0
   -3.8985   -0.5590    2.9047 H   0  0  0  0  0  0  0  0  0  0  0  0
   -0.2517   -4.5146   -0.5874 H   0  0  0  0  0  0  0  0  0  0  0  0
    1.8687    0.7404   -0.0518 H   0  0  0  0  0  0  0  0  0  0  0  0
    3.9259    4.7683    2.0365 H   0  0  0  0  0  0  0  0  0  0  0  0
    6.1590    0.6738    2.6232 H   0  0  0  0  0  0  0  0  0  0  0  0
    6.6894    2.2090    1.8922 H   0  0  0  0  0  0  0  0  0  0  0  0
    6.5989    0.7631    0.9103 H   0  0  0  0  0  0  0  0  0  0  0  0
    1.6667   -5.7912   -0.7004 H   0  0  0  0  0  0  0  0  0  0  0  0
    3.3892   -5.6386   -0.4607 H   0  0  0  0  0  0  0  0  0  0  0  0
    2.2810   -5.0302    0.7810 H   0  0  0  0  0  0  0  0  0  0  0  0
    5.1957   -3.0378   -2.5979 H   0  0  0  0  0  0  0  0  0  0  0  0
    5.3304    4.6666    3.9813 H   0  0  0  0  0  0  0  0  0  0  0  0
    5.4310    2.8243    3.8923 H   0  0  0  0  0  0  0  0  0  0  0  0
    6.5269   -4.0911   -0.8923 H   0  0  0  0  0  0  0  0  0  0  0  0
    5.0774   -4.1976    0.2541 H   0  0  0  0  0  0  0  0  0  0  0  0
  1 33  1  0  0  0  0
  2 33  2  0  0  0  0
  3 34  2  0  0  0  0
  4 35  1  0  0  0  0
  5 35  2  0  0  0  0
  6 39  2  0  0  0  0
  7 12  1  0  0  0  0
  7 17  1  0  0  0  0
  7 47  1  0  0  0  0
  8 14  1  0  0  0  0
  8 20  1  0  0  0  0
  8 50  1  0  0  0  0
  9 28  1  0  0  0  0
  9 34  1  0  0  0  0
  9 63  1  0  0  0  0
 10 29  2  0  0  0  0
 10 39  1  0  0  0  0
 11 12  2  0  0  0  0
 11 15  1  0  0  0  0
 11 19  1  0  0  0  0
 12 18  1  0  0  0  0
 13 14  1  0  0  0  0
 13 16  2  0  0  0  0
 13 21  1  0  0  0  0
 14 18  2  0  0  0  0
 15 17  2  0  0  0  0
 15 22  1  0  0  0  0
 16 20  1  0  0  0  0
 16 25  1  0  0  0  0
 17 23  1  0  0  0  0
 18 44  1  0  0  0  0
 19 24  1  0  0  0  0
 19 45  1  0  0  0  0
 19 46  1  0  0  0  0
 20 27  2  0  0  0  0
 21 26  1  0  0  0  0
 21 48  1  0  0  0  0
 21 49  1  0  0  0  0
 22 52  1  0  0  0  0
 22 53  1  0  0  0  0
 22 54  1  0  0  0  0
 23 28  2  0  0  0  0
 23 51  1  0  0  0  0
 24 33  1  0  0  0  0
 24 55  1  0  0  0  0
 24 56  1  0  0  0  0
 25 57  1  0  0  0  0
 25 58  1  0  0  0  0
 25 59  1  0  0  0  0
 26 35  1  0  0  0  0
 26 60  1  0  0  0  0
 26 61  1  0  0  0  0
 27 29  1  0  0  0  0
 27 62  1  0  0  0  0
 28 30  1  0  0  0  0
 29 32  1  0  0  0  0
 30 31  2  0  0  0  0
 30 37  1  0  0  0  0
 31 34  1  0  0  0  0
 31 38  1  0  0  0  0
 32 36  2  0  0  0  0
 32 40  1  0  0  0  0
 36 39  1  0  0  0  0
 36 41  1  0  0  0  0
 37 42  2  0  0  0  0
 37 64  1  0  0  0  0
 38 65  1  0  0  0  0
 38 66  1  0  0  0  0
 38 67  1  0  0  0  0
 40 68  1  0  0  0  0
 40 69  1  0  0  0  0
 40 70  1  0  0  0  0
 41 43  2  0  0  0  0
 41 71  1  0  0  0  0
 42 72  1  0  0  0  0
 42 73  1  0  0  0  0
 43 74  1  0  0  0  0
 43 75  1  0  0  0  0
M  CHG  2   1  -1   4  -1
M  END
> <PUBCHEM_COMPOUND_CID>
25245769

> <PUBCHEM_CONFORMER_RMSD>
1.4

> <PUBCHEM_CONFORMER_DIVERSEORDER>
2
5
30
89
54
6
105
71
99
59
34
58
81
52
67
83
27
80
86
98
60
28
70
88
97
4
11
32
49
95
24
56
68
40
103
85
100
3
92
12
93
84
23
10
101
31
44
106
57
48
69
74
35
21
17
65
46
50
73
53
15
77
18
79
43
33
22
62
9
72
61
78
37
96
29
39
36
94
102
91
76
63
41
87
1
75
47
38
8
25
16
42
82
13
26
64
51
14
20
66
90
104
19
55
7
45

> <PUBCHEM_MMFF94_PARTIAL_CHARGES>
54
1 -0.9
10 -0.66
11 -0.18
12 -0.2
13 -0.14
14 0.1
15 -0.18
16 -0.14
17 -0.2
18 -0.11
19 0.18
2 -0.9
20 0.1
21 0.14
22 0.18
23 -0.11
24 -0.11
25 0.14
26 -0.11
27 -0.14
28 0.11
29 0.42
3 -0.57
31 -0.12
32 -0.12
33 0.91
34 0.62
35 0.91
36 0.01
37 -0.15
38 0.14
39 0.77
4 -0.9
40 0.14
41 -0.15
42 -0.3
43 -0.3
44 0.15
47 0.27
5 -0.9
50 0.4
51 0.15
6 -0.57
62 0.15
63 0.37
64 0.15
7 0.03
71 0.15
72 0.15
73 0.15
74 0.15
75 0.15
8 -0.6
9 -0.54

> <PUBCHEM_EFFECTIVE_ROTOR_COUNT>
11.2

> <PUBCHEM_PHARMACOPHORE_FEATURES>
21
1 1 acceptor
1 10 acceptor
1 10 donor
1 2 acceptor
1 3 acceptor
1 4 acceptor
1 42 hydrophobe
1 43 hydrophobe
1 5 acceptor
1 6 acceptor
1 7 cation
1 7 donor
1 8 cation
1 8 donor
1 9 donor
3 1 2 33 anion
3 4 5 35 anion
5 10 29 32 36 39 rings
5 7 11 12 15 17 rings
5 8 13 14 16 20 rings
5 9 28 30 31 34 rings

> <PUBCHEM_HEAVY_ATOM_COUNT>
43

> <PUBCHEM_ATOM_DEF_STEREO_COUNT>
0

> <PUBCHEM_ATOM_UDEF_STEREO_COUNT>
0

> <PUBCHEM_BOND_DEF_STEREO_COUNT>
3

> <PUBCHEM_BOND_UDEF_STEREO_COUNT>
0

> <PUBCHEM_ISOTOPIC_ATOM_COUNT>
0

> <PUBCHEM_COMPONENT_COUNT>
1

> <PUBCHEM_CACTVS_TAUTO_COUNT>
1001

> <PUBCHEM_CONFORMER_ID>
0181384900000002

> <PUBCHEM_MMFF94_ENERGY>
111.667

> <PUBCHEM_FEATURE_SELFOVERLAP>
106.719

> <PUBCHEM_SHAPE_MULTIPOLES>
829.78
12.7
8.07
4.09
3.41
-0.51
5.76
-10.5
20.55
-8.92
20.64
45.21
14.15
-0.3

> <PUBCHEM_SHAPE_SELFOVERLAP>
1795.981

> <PUBCHEM_SHAPE_VOLUME>
458.1

> <PUBCHEM_COORDINATE_TYPE>
2
5
255

$$$$

