469187
  -OEChem-10021005162D

119126  0     1  0  0  0  0  0999 V2000
   10.0560   -3.9239    0.0000 S   0  5  0  0  0  0  0  0  0  0  0  0
   10.2651   -1.9348    0.0000 S   0  0  0  0  0  0  0  0  0  0  0  0
    7.7117   -0.3529    0.0000 S   0  5  0  0  0  0  0  0  0  0  0  0
    6.0936   -1.5285    0.0000 S   0  0  0  0  0  0  0  0  0  0  0  0
   15.7220   -3.1506    0.0000 S   0  5  0  0  0  0  0  0  0  0  0  0
   14.1039   -4.3261    0.0000 S   0  0  0  0  0  0  0  0  0  0  0  0
   10.1605   -2.9293    0.0000 P   0  0  3  0  0  0  0  0  0  0  0  0
    6.9027   -0.9407    0.0000 P   0  0  3  0  0  0  0  0  0  0  0  0
   14.9129   -3.7384    0.0000 P   0  0  3  0  0  0  0  0  0  0  0  0
   13.0519   -1.2738    0.0000 O   0  0  0  0  0  0  0  0  0  0  0  0
    6.9146   -4.2724    0.0000 O   0  0  0  0  0  0  0  0  0  0  0  0
   11.1551   -3.0339    0.0000 O   0  0  0  0  0  0  0  0  0  0  0  0
    7.4904   -1.7497    0.0000 O   0  0  0  0  0  0  0  0  0  0  0  0
   18.0779   -4.7792    0.0000 O   0  0  0  0  0  0  0  0  0  0  0  0
    6.4428    2.5419    0.0000 O   0  0  0  0  0  0  0  0  0  0  0  0
   15.5007   -4.5474    0.0000 O   0  0  0  0  0  0  0  0  0  0  0  0
    9.1660   -2.8248    0.0000 O   0  0  0  0  0  0  0  0  0  0  0  0
   14.3252   -2.9293    0.0000 O   0  0  0  0  0  0  0  0  0  0  0  0
    6.3149   -0.1317    0.0000 O   0  0  0  0  0  0  0  0  0  0  0  0
    4.5460    0.7819    0.0000 O   0  0  0  0  0  0  0  0  0  0  0  0
   17.6996   -6.8333    0.0000 O   0  0  0  0  0  0  0  0  0  0  0  0
   10.5108    0.3140    0.0000 O   0  0  0  0  0  0  0  0  0  0  0  0
    4.2690   -2.8657    0.0000 O   0  0  0  0  0  0  0  0  0  0  0  0
   19.8755   -4.4028    0.0000 O   0  0  0  0  0  0  0  0  0  0  0  0
    7.3659    4.1297    0.0000 O   0  0  0  0  0  0  0  0  0  0  0  0
   12.2428    0.3140    0.0000 N   0  0  0  0  0  0  0  0  0  0  0  0
    5.1350   -4.3657    0.0000 N   0  0  0  0  0  0  0  0  0  0  0  0
   18.7165   -3.1156    0.0000 N   0  0  0  0  0  0  0  0  0  0  0  0
    5.6338    4.1297    0.0000 N   0  0  0  0  0  0  0  0  0  0  0  0
   11.3768    1.8140    0.0000 N   0  0  0  0  0  0  0  0  0  0  0  0
    3.4030   -4.3657    0.0000 N   0  0  0  0  0  0  0  0  0  0  0  0
   20.4107   -2.7555    0.0000 N   0  0  0  0  0  0  0  0  0  0  0  0
    6.4999    5.6297    0.0000 N   0  0  0  0  0  0  0  0  0  0  0  0
   12.2428    3.3140    0.0000 N   0  0  0  0  0  0  0  0  0  0  0  0
    2.5369   -5.8657    0.0000 N   0  0  0  0  0  0  0  0  0  0  0  0
   20.9460   -1.1082    0.0000 N   0  0  0  0  0  0  0  0  0  0  0  0
    5.6338    7.1297    0.0000 N   0  0  0  0  0  0  0  0  0  0  0  0
   11.7428   -2.2248    0.0000 C   0  0  3  0  0  0  0  0  0  0  0  0
    7.0837   -2.6633    0.0000 C   0  0  3  0  0  0  0  0  0  0  0  0
   12.7428   -2.2248    0.0000 C   0  0  3  0  0  0  0  0  0  0  0  0
    7.5837   -3.5293    0.0000 C   0  0  3  0  0  0  0  0  0  0  0  0
   11.4338   -1.2738    0.0000 C   0  0  0  0  0  0  0  0  0  0  0  0
    6.1056   -2.8712    0.0000 C   0  0  0  0  0  0  0  0  0  0  0  0
   12.2428   -0.6860    0.0000 C   0  0  3  0  0  0  0  0  0  0  0  0
    6.0010   -3.8657    0.0000 C   0  0  3  0  0  0  0  0  0  0  0  0
   16.4952   -4.4428    0.0000 C   0  0  3  0  0  0  0  0  0  0  0  0
   17.1644   -5.1860    0.0000 C   0  0  3  0  0  0  0  0  0  0  0  0
   16.9952   -3.5768    0.0000 C   0  0  0  0  0  0  0  0  0  0  0  0
    8.5782   -3.6338    0.0000 C   0  0  0  0  0  0  0  0  0  0  0  0
   17.9734   -3.7847    0.0000 C   0  0  3  0  0  0  0  0  0  0  0  0
   13.3306   -3.0339    0.0000 C   0  0  0  0  0  0  0  0  0  0  0  0
    6.1338    1.5909    0.0000 C   0  0  3  0  0  0  0  0  0  0  0  0
    5.1338    1.5909    0.0000 C   0  0  3  0  0  0  0  0  0  0  0  0
    4.8248    2.5419    0.0000 C   0  0  0  0  0  0  0  0  0  0  0  0
    5.6338    3.1297    0.0000 C   0  0  3  0  0  0  0  0  0  0  0  0
    6.7216    0.7819    0.0000 C   0  0  0  0  0  0  0  0  0  0  0  0
   16.9565   -6.1641    0.0000 C   0  0  0  0  0  0  0  0  0  0  0  0
   13.1089    0.8140    0.0000 C   0  0  0  0  0  0  0  0  0  0  0  0
    5.1350   -5.3657    0.0000 C   0  0  0  0  0  0  0  0  0  0  0  0
   11.3768    0.8140    0.0000 C   0  0  0  0  0  0  0  0  0  0  0  0
    4.2690   -3.8657    0.0000 C   0  0  0  0  0  0  0  0  0  0  0  0
   18.5086   -2.1374    0.0000 C   0  0  0  0  0  0  0  0  0  0  0  0
   19.6676   -3.4246    0.0000 C   0  0  0  0  0  0  0  0  0  0  0  0
    4.7678    4.6297    0.0000 C   0  0  0  0  0  0  0  0  0  0  0  0
   13.1089    1.8140    0.0000 C   0  0  0  0  0  0  0  0  0  0  0  0
    6.4999    4.6297    0.0000 C   0  0  0  0  0  0  0  0  0  0  0  0
    4.2690   -5.8657    0.0000 C   0  0  0  0  0  0  0  0  0  0  0  0
   12.2428    2.3140    0.0000 C   0  0  0  0  0  0  0  0  0  0  0  0
    3.4030   -5.3657    0.0000 C   0  0  0  0  0  0  0  0  0  0  0  0
   19.2518   -1.4683    0.0000 C   0  0  0  0  0  0  0  0  0  0  0  0
    4.7678    5.6297    0.0000 C   0  0  0  0  0  0  0  0  0  0  0  0
   20.2028   -1.7773    0.0000 C   0  0  0  0  0  0  0  0  0  0  0  0
    5.6338    6.1297    0.0000 C   0  0  0  0  0  0  0  0  0  0  0  0
   10.9033   -2.0919    0.0000 H   0  0  0  0  0  0  0  0  0  0  0  0
    7.9326   -2.6188    0.0000 H   0  0  0  0  0  0  0  0  0  0  0  0
   13.5824   -2.0919    0.0000 H   0  0  0  0  0  0  0  0  0  0  0  0
    7.8883   -4.3228    0.0000 H   0  0  0  0  0  0  0  0  0  0  0  0
   11.1238   -0.7369    0.0000 H   0  0  0  0  0  0  0  0  0  0  0  0
   10.8674   -1.5260    0.0000 H   0  0  0  0  0  0  0  0  0  0  0  0
    6.0408   -2.2546    0.0000 H   0  0  0  0  0  0  0  0  0  0  0  0
    5.4856   -2.8712    0.0000 H   0  0  0  0  0  0  0  0  0  0  0  0
   13.0002   -0.3001    0.0000 H   0  0  0  0  0  0  0  0  0  0  0  0
    5.2882   -3.4028    0.0000 H   0  0  0  0  0  0  0  0  0  0  0  0
   16.0323   -3.7300    0.0000 H   0  0  0  0  0  0  0  0  0  0  0  0
   17.8250   -5.7209    0.0000 H   0  0  0  0  0  0  0  0  0  0  0  0
   17.1868   -2.9872    0.0000 H   0  0  0  0  0  0  0  0  0  0  0  0
   16.4289   -3.3246    0.0000 H   0  0  0  0  0  0  0  0  0  0  0  0
    8.4073   -4.2298    0.0000 H   0  0  0  0  0  0  0  0  0  0  0  0
    9.1355   -3.9056    0.0000 H   0  0  0  0  0  0  0  0  0  0  0  0
   18.7669   -4.0893    0.0000 H   0  0  0  0  0  0  0  0  0  0  0  0
   12.7734   -3.3056    0.0000 H   0  0  0  0  0  0  0  0  0  0  0  0
   13.5015   -3.6298    0.0000 H   0  0  0  0  0  0  0  0  0  0  0  0
    6.9734    1.7238    0.0000 H   0  0  0  0  0  0  0  0  0  0  0  0
    5.5197    0.8335    0.0000 H   0  0  0  0  0  0  0  0  0  0  0  0
    4.5148    3.0789    0.0000 H   0  0  0  0  0  0  0  0  0  0  0  0
    4.2584    2.2898    0.0000 H   0  0  0  0  0  0  0  0  0  0  0  0
    6.3912    3.5156    0.0000 H   0  0  0  0  0  0  0  0  0  0  0  0
    7.2356    0.4352    0.0000 H   0  0  0  0  0  0  0  0  0  0  0  0
    7.1523    1.2279    0.0000 H   0  0  0  0  0  0  0  0  0  0  0  0
   16.3816   -5.9319    0.0000 H   0  0  0  0  0  0  0  0  0  0  0  0
   16.6279   -6.6899    0.0000 H   0  0  0  0  0  0  0  0  0  0  0  0
   13.6458    0.5040    0.0000 H   0  0  0  0  0  0  0  0  0  0  0  0
    5.6720   -5.6757    0.0000 H   0  0  0  0  0  0  0  0  0  0  0  0
    3.9294    0.8467    0.0000 H   0  0  0  0  0  0  0  0  0  0  0  0
   17.9190   -1.9459    0.0000 H   0  0  0  0  0  0  0  0  0  0  0  0
    4.2309    4.3197    0.0000 H   0  0  0  0  0  0  0  0  0  0  0  0
   13.6458    2.1240    0.0000 H   0  0  0  0  0  0  0  0  0  0  0  0
    4.2690   -6.4857    0.0000 H   0  0  0  0  0  0  0  0  0  0  0  0
   17.5707   -7.4397    0.0000 H   0  0  0  0  0  0  0  0  0  0  0  0
   19.1229   -0.8619    0.0000 H   0  0  0  0  0  0  0  0  0  0  0  0
    4.2309    5.9397    0.0000 H   0  0  0  0  0  0  0  0  0  0  0  0
   12.7798    3.6240    0.0000 H   0  0  0  0  0  0  0  0  0  0  0  0
   11.7059    3.6240    0.0000 H   0  0  0  0  0  0  0  0  0  0  0  0
    2.5369   -6.4857    0.0000 H   0  0  0  0  0  0  0  0  0  0  0  0
    2.0000   -5.5557    0.0000 H   0  0  0  0  0  0  0  0  0  0  0  0
   21.5356   -1.2998    0.0000 H   0  0  0  0  0  0  0  0  0  0  0  0
   20.8171   -0.5018    0.0000 H   0  0  0  0  0  0  0  0  0  0  0  0
    5.0969    7.4397    0.0000 H   0  0  0  0  0  0  0  0  0  0  0  0
    6.1708    7.4397    0.0000 H   0  0  0  0  0  0  0  0  0  0  0  0
  1  7  1  0  0  0  0
  2  7  2  0  0  0  0
  3  8  1  0  0  0  0
  4  8  2  0  0  0  0
  5  9  1  0  0  0  0
  6  9  2  0  0  0  0
  7 12  1  0  0  0  0
  7 17  1  0  0  0  0
  8 13  1  0  0  0  0
  8 19  1  0  0  0  0
  9 16  1  0  0  0  0
  9 18  1  0  0  0  0
 10 40  1  0  0  0  0
 10 44  1  0  0  0  0
 11 41  1  0  0  0  0
 11 45  1  0  0  0  0
 12 38  1  0  0  0  0
 13 39  1  0  0  0  0
 14 47  1  0  0  0  0
 14 50  1  0  0  0  0
 15 52  1  0  0  0  0
 15 55  1  0  0  0  0
 16 46  1  0  0  0  0
 17 49  1  0  0  0  0
 18 51  1  0  0  0  0
 19 56  1  0  0  0  0
 20 53  1  0  0  0  0
 20104  1  0  0  0  0
 21 57  1  0  0  0  0
 21109  1  0  0  0  0
 22 60  2  0  0  0  0
 23 61  2  0  0  0  0
 24 63  2  0  0  0  0
 25 66  2  0  0  0  0
 26 44  1  0  0  0  0
 26 58  1  0  0  0  0
 26 60  1  0  0  0  0
 27 45  1  0  0  0  0
 27 59  1  0  0  0  0
 27 61  1  0  0  0  0
 28 50  1  0  0  0  0
 28 62  1  0  0  0  0
 28 63  1  0  0  0  0
 29 55  1  0  0  0  0
 29 64  1  0  0  0  0
 29 66  1  0  0  0  0
 30 60  1  0  0  0  0
 30 68  2  0  0  0  0
 31 61  1  0  0  0  0
 31 69  2  0  0  0  0
 32 63  1  0  0  0  0
 32 72  2  0  0  0  0
 33 66  1  0  0  0  0
 33 73  2  0  0  0  0
 34 68  1  0  0  0  0
 34112  1  0  0  0  0
 34113  1  0  0  0  0
 35 69  1  0  0  0  0
 35114  1  0  0  0  0
 35115  1  0  0  0  0
 36 72  1  0  0  0  0
 36116  1  0  0  0  0
 36117  1  0  0  0  0
 37 73  1  0  0  0  0
 37118  1  0  0  0  0
 37119  1  0  0  0  0
 38 40  1  0  0  0  0
 38 42  1  0  0  0  0
 38 74  1  0  0  0  0
 39 41  1  0  0  0  0
 39 43  1  0  0  0  0
 39 75  1  0  0  0  0
 40 51  1  0  0  0  0
 40 76  1  0  0  0  0
 41 49  1  0  0  0  0
 41 77  1  0  0  0  0
 42 44  1  0  0  0  0
 42 78  1  0  0  0  0
 42 79  1  0  0  0  0
 43 45  1  0  0  0  0
 43 80  1  0  0  0  0
 43 81  1  0  0  0  0
 44 82  1  0  0  0  0
 45 83  1  0  0  0  0
 46 47  1  0  0  0  0
 46 48  1  0  0  0  0
 46 84  1  0  0  0  0
 47 57  1  0  0  0  0
 47 85  1  0  0  0  0
 48 50  1  0  0  0  0
 48 86  1  0  0  0  0
 48 87  1  0  0  0  0
 49 88  1  0  0  0  0
 49 89  1  0  0  0  0
 50 90  1  0  0  0  0
 51 91  1  0  0  0  0
 51 92  1  0  0  0  0
 52 53  1  0  0  0  0
 52 56  1  0  0  0  0
 52 93  1  0  0  0  0
 53 54  1  0  0  0  0
 53 94  1  0  0  0  0
 54 55  1  0  0  0  0
 54 95  1  0  0  0  0
 54 96  1  0  0  0  0
 55 97  1  0  0  0  0
 56 98  1  0  0  0  0
 56 99  1  0  0  0  0
 57100  1  0  0  0  0
 57101  1  0  0  0  0
 58 65  2  0  0  0  0
 58102  1  0  0  0  0
 59 67  2  0  0  0  0
 59103  1  0  0  0  0
 62 70  2  0  0  0  0
 62105  1  0  0  0  0
 64 71  2  0  0  0  0
 64106  1  0  0  0  0
 65 68  1  0  0  0  0
 65107  1  0  0  0  0
 67 69  1  0  0  0  0
 67108  1  0  0  0  0
 70 72  1  0  0  0  0
 70110  1  0  0  0  0
 71 73  1  0  0  0  0
 71111  1  0  0  0  0
M  CHG  3   1  -1   3  -1   5  -1
M  END
> <PUBCHEM_COMPOUND_CID>
469187

> <PUBCHEM_COMPOUND_CANONICALIZED>
1

> <PUBCHEM_CACTVS_COMPLEXITY>
2590

> <PUBCHEM_CACTVS_HBOND_ACCEPTOR>
23

> <PUBCHEM_CACTVS_HBOND_DONOR>
6

> <PUBCHEM_CACTVS_ROTATABLE_BOND>
20

> <PUBCHEM_CACTVS_SUBSKEYS>
AAADcfB//gNwAAAAAAAAAAAAAAAAASJEiQAgQIEAAAAAAAAAAAAAHgAQCCAACBThgAYBAANABxCoACJmdACAAAEAAgAIAAAYABCBEAIAgAAOQAAHFgIDAACwMAIAAAAAAAAAAAAAAAAAAAAAAAAAAAAAAA==

> <PUBCHEM_IUPAC_OPENEYE_NAME>
4-amino-1-[5-[[[5-(4-amino-2-oxo-pyrimidin-1-yl)-2-[[[5-(4-amino-2-oxo-pyrimidin-1-yl)-2-[[[5-(4-amino-2-oxo-pyrimidin-1-yl)-2-(hydroxymethyl)tetrahydrofuran-3-yl]oxy-sulfido-phosphinothioyl]oxymethyl]tetrahydrofuran-3-yl]oxy-sulfido-phosphinothioyl]oxymethyl]tetrahydrofuran-3-yl]oxy-sulfido-phosphinothioyl]oxymethyl]-4-hydroxy-tetrahydrofuran-2-yl]pyrimidin-2-one

> <PUBCHEM_IUPAC_CAS_NAME>
4-amino-1-[5-[[[5-(4-amino-2-oxo-1-pyrimidinyl)-2-[[[5-(4-amino-2-oxo-1-pyrimidinyl)-2-[[[5-(4-amino-2-oxo-1-pyrimidinyl)-2-(hydroxymethyl)-3-oxolanyl]oxy-sulfidophosphinothioyl]oxymethyl]-3-oxolanyl]oxy-sulfidophosphinothioyl]oxymethyl]-3-oxolanyl]oxy-sulfidophosphinothioyl]oxymethyl]-4-hydroxy-2-oxolanyl]-2-pyrimidinone

> <PUBCHEM_IUPAC_NAME>
4-amino-1-[5-[[[5-(4-amino-2-oxopyrimidin-1-yl)-2-[[[5-(4-amino-2-oxopyrimidin-1-yl)-2-[[[5-(4-amino-2-oxopyrimidin-1-yl)-2-(hydroxymethyl)oxolan-3-yl]oxy-sulfidophosphinothioyl]oxymethyl]oxolan-3-yl]oxy-sulfidophosphinothioyl]oxymethyl]oxolan-3-yl]oxy-sulfidophosphinothioyl]oxymethyl]-4-hydroxyoxolan-2-yl]pyrimidin-2-one

> <PUBCHEM_IUPAC_SYSTEMATIC_NAME>
4-azanyl-1-[5-[[[5-(4-azanyl-2-oxidanylidene-pyrimidin-1-yl)-2-[[[5-(4-azanyl-2-oxidanylidene-pyrimidin-1-yl)-2-[[[5-(4-azanyl-2-oxidanylidene-pyrimidin-1-yl)-2-(hydroxymethyl)oxolan-3-yl]oxy-sulfanidyl-phosphinothioyl]oxymethyl]oxolan-3-yl]oxy-sulfanidyl-phosphinothioyl]oxymethyl]oxolan-3-yl]oxy-sulfanidyl-phosphinothioyl]oxymethyl]-4-oxidanyl-oxolan-2-yl]pyrimidin-2-one

> <PUBCHEM_IUPAC_TRADITIONAL_NAME>
4-amino-1-[5-[[[5-(4-amino-2-keto-pyrimidin-1-yl)-2-[[[5-(4-amino-2-keto-pyrimidin-1-yl)-2-[[[5-(4-amino-2-keto-pyrimidin-1-yl)-2-methylol-tetrahydrofuran-3-yl]oxy-sulfido-thiophosphoryl]oxymethyl]tetrahydrofuran-3-yl]oxy-sulfido-thiophosphoryl]oxymethyl]tetrahydrofuran-3-yl]oxy-sulfido-thiophosphoryl]oxymethyl]-4-hydroxy-tetrahydrofuran-2-yl]pyrimidin-2-one

> <PUBCHEM_NIST_INCHI>
InChI=1S/C36H49N12O16P3S6/c37-25-1-5-45(33(51)41-25)29-9-17(50)22(59-29)14-55-65(68,69)63-19-11-31(47-7-3-27(39)43-35(47)53)61-24(19)16-57-67(72,73)64-20-12-32(48-8-4-28(40)44-36(48)54)60-23(20)15-56-66(70,71)62-18-10-30(58-21(18)13-49)46-6-2-26(38)42-34(46)52/h1-8,17-24,29-32,49-50H,9-16H2,(H,68,69)(H,70,71)(H,72,73)(H2,37,41,51)(H2,38,42,52)(H2,39,43,53)(H2,40,44,54)/p-3

> <PUBCHEM_NIST_INCHIKEY>
SHUBZDZCTLRGMJ-UHFFFAOYSA-K

> <PUBCHEM_XLOGP3_AA>
-1

> <PUBCHEM_EXACT_MASS>
1187.069182

> <PUBCHEM_MOLECULAR_FORMULA>
C36H46N12O16P3S6-3

> <PUBCHEM_MOLECULAR_WEIGHT>
1188.132523

> <PUBCHEM_OPENEYE_CAN_SMILES>
C1C(C(OC1N2C=CC(=NC2=O)N)COP(=S)(OC3CC(OC3COP(=S)(OC4CC(OC4COP(=S)(OC5CC(OC5CO)N6C=CC(=NC6=O)N)[S-])N7C=CC(=NC7=O)N)[S-])N8C=CC(=NC8=O)N)[S-])O

> <PUBCHEM_OPENEYE_ISO_SMILES>
C1C(C(OC1N2C=CC(=NC2=O)N)COP(=S)(OC3CC(OC3COP(=S)(OC4CC(OC4COP(=S)(OC5CC(OC5CO)N6C=CC(=NC6=O)N)[S-])N7C=CC(=NC7=O)N)[S-])N8C=CC(=NC8=O)N)[S-])O

> <PUBCHEM_CACTVS_TPSA>
467

> <PUBCHEM_MONOISOTOPIC_WEIGHT>
1187.069182

> <PUBCHEM_TOTAL_CHARGE>
-3

> <PUBCHEM_HEAVY_ATOM_COUNT>
73

> <PUBCHEM_ATOM_DEF_STEREO_COUNT>
0

> <PUBCHEM_ATOM_UDEF_STEREO_COUNT>
12

> <PUBCHEM_BOND_DEF_STEREO_COUNT>
0

> <PUBCHEM_BOND_UDEF_STEREO_COUNT>
0

> <PUBCHEM_ISOTOPIC_ATOM_COUNT>
0

> <PUBCHEM_COMPONENT_COUNT>
1

> <PUBCHEM_CACTVS_TAUTO_COUNT>
81

> <PUBCHEM_COORDINATE_TYPE>
1
3

> <PUBCHEM_BONDANNOTATIONS>
26  58  8
26  60  8
27  59  8
27  61  8
28  62  8
28  63  8
29  64  8
29  66  8
30  60  8
30  68  8
31  61  8
31  69  8
32  63  8
32  72  8
33  66  8
33  73  8
38  74  3
39  75  3
40  76  3
41  77  3
44  82  3
45  83  3
46  84  3
47  85  3
50  90  3
52  93  3
53  94  3
55  97  3
58  65  8
59  67  8
62  70  8
64  71  8
65  68  8
67  69  8
70  72  8
71  73  8

$$$$

