16197465
  -OEChem-10021005172D

299318  0     1  0  0  0  0  0999 V2000
   22.3699   -2.6612    0.0000 S   0  5  0  0  0  0  0  0  0  0  0  0
   20.7518   -3.8368    0.0000 S   0  0  0  0  0  0  0  0  0  0  0  0
   18.1052   -2.4165    0.0000 S   0  5  0  0  0  0  0  0  0  0  0  0
   18.3143   -0.4274    0.0000 S   0  0  0  0  0  0  0  0  0  0  0  0
   24.7142   -6.2322    0.0000 S   0  5  0  0  0  0  0  0  0  0  0  0
   24.9233   -4.2431    0.0000 S   0  0  0  0  0  0  0  0  0  0  0  0
   15.7609    1.1545    0.0000 S   0  5  0  0  0  0  0  0  0  0  0  0
   14.1428   -0.0211    0.0000 S   0  0  0  0  0  0  0  0  0  0  0  0
   30.3802   -5.4589    0.0000 S   0  5  0  0  0  0  0  0  0  0  0  0
   28.7621   -6.6345    0.0000 S   0  0  0  0  0  0  0  0  0  0  0  0
   11.4962    1.3993    0.0000 S   0  5  0  0  0  0  0  0  0  0  0  0
   11.7052    3.3883    0.0000 S   0  0  0  0  0  0  0  0  0  0  0  0
   32.3413   -2.8423    0.0000 S   0  5  0  0  0  0  0  0  0  0  0  0
   30.5142   -3.6558    0.0000 S   0  0  0  0  0  0  0  0  0  0  0  0
    9.1518    4.9702    0.0000 S   0  5  0  0  0  0  0  0  0  0  0  0
    7.5338    3.7946    0.0000 S   0  0  0  0  0  0  0  0  0  0  0  0
   35.5879   -2.4522    0.0000 S   0  5  0  0  0  0  0  0  0  0  0  0
   33.9699   -3.6278    0.0000 S   0  0  0  0  0  0  0  0  0  0  0  0
   21.5609   -3.2490    0.0000 P   0  0  3  0  0  0  0  0  0  0  0  0
   18.2097   -1.4219    0.0000 P   0  0  3  0  0  0  0  0  0  0  0  0
   24.8187   -5.2376    0.0000 P   0  0  3  0  0  0  0  0  0  0  0  0
   14.9518    0.5667    0.0000 P   0  0  3  0  0  0  0  0  0  0  0  0
   29.5711   -6.0467    0.0000 P   0  0  3  0  0  0  0  0  0  0  0  0
   11.6007    2.3938    0.0000 P   0  0  3  0  0  0  0  0  0  0  0  0
   31.4278   -3.2490    0.0000 P   0  0  3  0  0  0  0  0  0  0  0  0
    8.3428    4.3824    0.0000 P   0  0  3  0  0  0  0  0  0  0  0  0
   34.7789   -3.0400    0.0000 P   0  0  3  0  0  0  0  0  0  0  0  0
   21.5728   -6.5808    0.0000 O   0  0  0  0  0  0  0  0  0  0  0  0
   21.1010    0.2336    0.0000 O   0  0  0  0  0  0  0  0  0  0  0  0
   27.7101   -3.5821    0.0000 O   0  0  0  0  0  0  0  0  0  0  0  0
   14.9638   -2.7650    0.0000 O   0  0  0  0  0  0  0  0  0  0  0  0
   32.6316   -6.0930    0.0000 O   0  0  0  0  0  0  0  0  0  0  0  0
   14.4920    4.0493    0.0000 O   0  0  0  0  0  0  0  0  0  0  0  0
   32.9178   -0.5754    0.0000 O   0  0  0  0  0  0  0  0  0  0  0  0
    8.3547    1.0507    0.0000 O   0  0  0  0  0  0  0  0  0  0  0  0
   22.1486   -4.0580    0.0000 O   0  0  0  0  0  0  0  0  0  0  0  0
   19.2042   -1.5265    0.0000 O   0  0  0  0  0  0  0  0  0  0  0  0
   25.8133   -5.3422    0.0000 O   0  0  0  0  0  0  0  0  0  0  0  0
   15.5396   -0.2423    0.0000 O   0  0  0  0  0  0  0  0  0  0  0  0
   30.1589   -6.8557    0.0000 O   0  0  0  0  0  0  0  0  0  0  0  0
   12.5952    2.2893    0.0000 O   0  0  0  0  0  0  0  0  0  0  0  0
   31.0210   -2.3355    0.0000 O   0  0  0  0  0  0  0  0  0  0  0  0
   20.9731   -2.4400    0.0000 O   0  0  0  0  0  0  0  0  0  0  0  0
   23.8242   -5.1331    0.0000 O   0  0  0  0  0  0  0  0  0  0  0  0
   17.2152   -1.3174    0.0000 O   0  0  0  0  0  0  0  0  0  0  0  0
   28.9834   -5.2376    0.0000 O   0  0  0  0  0  0  0  0  0  0  0  0
    8.9306    3.5734    0.0000 O   0  0  0  0  0  0  0  0  0  0  0  0
   14.3641    1.3757    0.0000 O   0  0  0  0  0  0  0  0  0  0  0  0
   31.8345   -4.1626    0.0000 O   0  0  0  0  0  0  0  0  0  0  0  0
   10.6062    2.4983    0.0000 O   0  0  0  0  0  0  0  0  0  0  0  0
   37.8394   -3.0863    0.0000 O   0  0  0  0  0  0  0  0  0  0  0  0
   34.1911   -2.2310    0.0000 O   0  0  0  0  0  0  0  0  0  0  0  0
   35.3667   -3.8490    0.0000 O   0  0  0  0  0  0  0  0  0  0  0  0
    6.5740    6.9140    0.0000 O   0  0  0  0  0  0  0  0  0  0  0  0
    7.7550    5.1914    0.0000 O   0  0  0  0  0  0  0  0  0  0  0  0
    8.8341    8.1741    0.0000 O   0  0  0  0  0  0  0  0  0  0  0  0
   37.0423   -1.1559    0.0000 O   0  0  0  0  0  0  0  0  0  0  0  0
   18.9272   -5.1740    0.0000 O   0  0  0  0  0  0  0  0  0  0  0  0
   22.0241    1.8214    0.0000 O   0  0  0  0  0  0  0  0  0  0  0  0
   25.1690   -1.9943    0.0000 O   0  0  0  0  0  0  0  0  0  0  0  0
   12.3182   -1.3583    0.0000 O   0  0  0  0  0  0  0  0  0  0  0  0
   32.7361   -9.0876    0.0000 O   0  0  0  0  0  0  0  0  0  0  0  0
   15.4151    5.6371    0.0000 O   0  0  0  0  0  0  0  0  0  0  0  0
   33.8409    1.0124    0.0000 O   0  0  0  0  0  0  0  0  0  0  0  0
    5.7092    2.4574    0.0000 O   0  0  0  0  0  0  0  0  0  0  0  0
   37.9439   -6.0809    0.0000 O   0  0  0  0  0  0  0  0  0  0  0  0
    4.7787    6.5268    0.0000 O   0  0  0  0  0  0  0  0  0  0  0  0
   19.7932   -6.6740    0.0000 N   0  0  0  0  0  0  0  0  0  0  0  0
   20.2920    1.8214    0.0000 N   0  0  0  0  0  0  0  0  0  0  0  0
   26.9010   -1.9943    0.0000 N   0  0  0  0  0  0  0  0  0  0  0  0
   13.1842   -2.8583    0.0000 N   0  0  0  0  0  0  0  0  0  0  0  0
   33.6021   -7.5876    0.0000 N   0  0  0  0  0  0  0  0  0  0  0  0
   13.6830    5.6371    0.0000 N   0  0  0  0  0  0  0  0  0  0  0  0
   32.1088    1.0124    0.0000 N   0  0  0  0  0  0  0  0  0  0  0  0
    6.5752    0.9574    0.0000 N   0  0  0  0  0  0  0  0  0  0  0  0
   38.8099   -4.5809    0.0000 N   0  0  0  0  0  0  0  0  0  0  0  0
    5.3139    8.1741    0.0000 N   0  0  0  0  0  0  0  0  0  0  0  0
   18.0612   -6.6740    0.0000 N   0  0  0  0  0  0  0  0  0  0  0  0
   21.1581    3.3214    0.0000 N   0  0  0  0  0  0  0  0  0  0  0  0
   26.0350   -0.4943    0.0000 N   0  0  0  0  0  0  0  0  0  0  0  0
   11.4521   -2.8583    0.0000 N   0  0  0  0  0  0  0  0  0  0  0  0
   34.4682   -9.0876    0.0000 N   0  0  0  0  0  0  0  0  0  0  0  0
   14.5490    7.1371    0.0000 N   0  0  0  0  0  0  0  0  0  0  0  0
   32.9748    2.5124    0.0000 N   0  0  0  0  0  0  0  0  0  0  0  0
    4.8431    0.9574    0.0000 N   0  0  0  0  0  0  0  0  0  0  0  0
   39.6759   -6.0809    0.0000 N   0  0  0  0  0  0  0  0  0  0  0  0
   17.1951   -8.1740    0.0000 N   0  0  0  0  0  0  0  0  0  0  0  0
   20.2920    4.8214    0.0000 N   0  0  0  0  0  0  0  0  0  0  0  0
   26.9010    1.0057    0.0000 N   0  0  0  0  0  0  0  0  0  0  0  0
   10.5861   -4.3583    0.0000 N   0  0  0  0  0  0  0  0  0  0  0  0
   36.2002   -9.0876    0.0000 N   0  0  0  0  0  0  0  0  0  0  0  0
   13.6830    8.6371    0.0000 N   0  0  0  0  0  0  0  0  0  0  0  0
   32.1088    4.0124    0.0000 N   0  0  0  0  0  0  0  0  0  0  0  0
    3.6197    7.8140    0.0000 N   0  0  0  0  0  0  0  0  0  0  0  0
    3.9771   -0.5426    0.0000 N   0  0  0  0  0  0  0  0  0  0  0  0
   41.4080   -6.0809    0.0000 N   0  0  0  0  0  0  0  0  0  0  0  0
    2.4608    9.1011    0.0000 N   0  0  0  0  0  0  0  0  0  0  0  0
   21.7419   -4.9716    0.0000 C   0  0  3  0  0  0  0  0  0  0  0  0
   19.7920   -0.7174    0.0000 C   0  0  3  0  0  0  0  0  0  0  0  0
   26.4010   -4.5332    0.0000 C   0  0  3  0  0  0  0  0  0  0  0  0
   15.1329   -1.1559    0.0000 C   0  0  3  0  0  0  0  0  0  0  0  0
   31.1534   -6.7512    0.0000 C   0  0  3  0  0  0  0  0  0  0  0  0
   22.2419   -5.8376    0.0000 C   0  0  3  0  0  0  0  0  0  0  0  0
   20.7920   -0.7174    0.0000 C   0  0  3  0  0  0  0  0  0  0  0  0
   27.4010   -4.5332    0.0000 C   0  0  3  0  0  0  0  0  0  0  0  0
   15.6329   -2.0219    0.0000 C   0  0  3  0  0  0  0  0  0  0  0  0
   13.1830    3.0983    0.0000 C   0  0  3  0  0  0  0  0  0  0  0  0
   31.6534   -5.8851    0.0000 C   0  0  3  0  0  0  0  0  0  0  0  0
   14.1830    3.0983    0.0000 C   0  0  3  0  0  0  0  0  0  0  0  0
   20.7638   -5.1795    0.0000 C   0  0  0  0  0  0  0  0  0  0  0  0
   19.4830    0.2336    0.0000 C   0  0  0  0  0  0  0  0  0  0  0  0
   26.0920   -3.5821    0.0000 C   0  0  0  0  0  0  0  0  0  0  0  0
   14.1547   -1.3638    0.0000 C   0  0  0  0  0  0  0  0  0  0  0  0
   31.8226   -7.4943    0.0000 C   0  0  0  0  0  0  0  0  0  0  0  0
   12.8740    4.0493    0.0000 C   0  0  0  0  0  0  0  0  0  0  0  0
   20.6592   -6.1740    0.0000 C   0  0  3  0  0  0  0  0  0  0  0  0
   20.2920    0.8214    0.0000 C   0  0  3  0  0  0  0  0  0  0  0  0
   26.9010   -2.9943    0.0000 C   0  0  3  0  0  0  0  0  0  0  0  0
   14.0502   -2.3583    0.0000 C   0  0  3  0  0  0  0  0  0  0  0  0
   31.6088   -1.5265    0.0000 C   0  0  3  0  0  0  0  0  0  0  0  0
   32.7361   -7.0876    0.0000 C   0  0  3  0  0  0  0  0  0  0  0  0
   13.6830    4.6371    0.0000 C   0  0  3  0  0  0  0  0  0  0  0  0
   32.6088   -1.5265    0.0000 C   0  0  3  0  0  0  0  0  0  0  0  0
    8.5239    2.6598    0.0000 C   0  0  3  0  0  0  0  0  0  0  0  0
    9.0239    1.7938    0.0000 C   0  0  3  0  0  0  0  0  0  0  0  0
   31.2998   -0.5754    0.0000 C   0  0  0  0  0  0  0  0  0  0  0  0
   32.1088    0.0124    0.0000 C   0  0  3  0  0  0  0  0  0  0  0  0
    7.5457    2.4519    0.0000 C   0  0  0  0  0  0  0  0  0  0  0  0
    7.4412    1.4574    0.0000 C   0  0  3  0  0  0  0  0  0  0  0  0
   21.3798   -1.5265    0.0000 C   0  0  0  0  0  0  0  0  0  0  0  0
   23.2364   -5.9421    0.0000 C   0  0  0  0  0  0  0  0  0  0  0  0
   16.6274   -2.1264    0.0000 C   0  0  0  0  0  0  0  0  0  0  0  0
   27.9888   -5.3422    0.0000 C   0  0  0  0  0  0  0  0  0  0  0  0
   14.7708    2.2893    0.0000 C   0  0  0  0  0  0  0  0  0  0  0  0
   31.2467   -4.9716    0.0000 C   0  0  0  0  0  0  0  0  0  0  0  0
   10.0184    1.6893    0.0000 C   0  0  0  0  0  0  0  0  0  0  0  0
   33.1966   -2.3355    0.0000 C   0  0  0  0  0  0  0  0  0  0  0  0
   36.3612   -3.7445    0.0000 C   0  0  3  0  0  0  0  0  0  0  0  0
   36.8612   -2.8784    0.0000 C   0  0  3  0  0  0  0  0  0  0  0  0
   37.0303   -4.4876    0.0000 C   0  0  0  0  0  0  0  0  0  0  0  0
   37.9439   -4.0809    0.0000 C   0  0  3  0  0  0  0  0  0  0  0  0
    7.5740    6.9140    0.0000 C   0  0  3  0  0  0  0  0  0  0  0  0
    7.8830    7.8650    0.0000 C   0  0  3  0  0  0  0  0  0  0  0  0
    7.0740    8.4528    0.0000 C   0  0  0  0  0  0  0  0  0  0  0  0
    6.2650    7.8650    0.0000 C   0  0  3  0  0  0  0  0  0  0  0  0
    8.1618    6.1050    0.0000 C   0  0  0  0  0  0  0  0  0  0  0  0
   36.4545   -1.9649    0.0000 C   0  0  0  0  0  0  0  0  0  0  0  0
   19.7932   -7.6740    0.0000 C   0  0  0  0  0  0  0  0  0  0  0  0
   19.4260    2.3214    0.0000 C   0  0  0  0  0  0  0  0  0  0  0  0
   27.7671   -1.4943    0.0000 C   0  0  0  0  0  0  0  0  0  0  0  0
   13.1842   -3.8583    0.0000 C   0  0  0  0  0  0  0  0  0  0  0  0
   34.4682   -7.0876    0.0000 C   0  0  0  0  0  0  0  0  0  0  0  0
   12.8170    6.1371    0.0000 C   0  0  0  0  0  0  0  0  0  0  0  0
   18.9272   -6.1740    0.0000 C   0  0  0  0  0  0  0  0  0  0  0  0
   21.1581    2.3214    0.0000 C   0  0  0  0  0  0  0  0  0  0  0  0
   26.0350   -1.4943    0.0000 C   0  0  0  0  0  0  0  0  0  0  0  0
   12.3182   -2.3583    0.0000 C   0  0  0  0  0  0  0  0  0  0  0  0
   33.6021   -8.5876    0.0000 C   0  0  0  0  0  0  0  0  0  0  0  0
   14.5490    6.1371    0.0000 C   0  0  0  0  0  0  0  0  0  0  0  0
   31.2428    1.5124    0.0000 C   0  0  0  0  0  0  0  0  0  0  0  0
   32.9748    1.5124    0.0000 C   0  0  0  0  0  0  0  0  0  0  0  0
    6.5752   -0.0426    0.0000 C   0  0  0  0  0  0  0  0  0  0  0  0
    5.7092    1.4574    0.0000 C   0  0  0  0  0  0  0  0  0  0  0  0
   18.9272   -8.1740    0.0000 C   0  0  0  0  0  0  0  0  0  0  0  0
   19.4260    3.3214    0.0000 C   0  0  0  0  0  0  0  0  0  0  0  0
   27.7671   -0.4943    0.0000 C   0  0  0  0  0  0  0  0  0  0  0  0
   12.3182   -4.3583    0.0000 C   0  0  0  0  0  0  0  0  0  0  0  0
   35.3342   -7.5876    0.0000 C   0  0  0  0  0  0  0  0  0  0  0  0
   12.8170    7.1371    0.0000 C   0  0  0  0  0  0  0  0  0  0  0  0
   31.2428    2.5124    0.0000 C   0  0  0  0  0  0  0  0  0  0  0  0
   39.6759   -4.0809    0.0000 C   0  0  0  0  0  0  0  0  0  0  0  0
    5.7092   -0.5426    0.0000 C   0  0  0  0  0  0  0  0  0  0  0  0
   18.0612   -7.6740    0.0000 C   0  0  0  0  0  0  0  0  0  0  0  0
   20.2920    3.8214    0.0000 C   0  0  0  0  0  0  0  0  0  0  0  0
   26.9010    0.0057    0.0000 C   0  0  0  0  0  0  0  0  0  0  0  0
   11.4521   -3.8583    0.0000 C   0  0  0  0  0  0  0  0  0  0  0  0
   38.8099   -5.5809    0.0000 C   0  0  0  0  0  0  0  0  0  0  0  0
   35.3342   -8.5876    0.0000 C   0  0  0  0  0  0  0  0  0  0  0  0
   13.6830    7.6371    0.0000 C   0  0  0  0  0  0  0  0  0  0  0  0
   32.1088    3.0124    0.0000 C   0  0  0  0  0  0  0  0  0  0  0  0
    4.8431   -0.0426    0.0000 C   0  0  0  0  0  0  0  0  0  0  0  0
    5.1060    9.1522    0.0000 C   0  0  0  0  0  0  0  0  0  0  0  0
    4.5708    7.5049    0.0000 C   0  0  0  0  0  0  0  0  0  0  0  0
   40.5420   -4.5809    0.0000 C   0  0  0  0  0  0  0  0  0  0  0  0
   40.5420   -5.5809    0.0000 C   0  0  0  0  0  0  0  0  0  0  0  0
    4.1550    9.4612    0.0000 C   0  0  0  0  0  0  0  0  0  0  0  0
    3.4118    8.7921    0.0000 C   0  0  0  0  0  0  0  0  0  0  0  0
   22.3611   -4.9391    0.0000 H   0  0  0  0  0  0  0  0  0  0  0  0
   20.0735   -1.2699    0.0000 H   0  0  0  0  0  0  0  0  0  0  0  0
   26.6825   -5.0856    0.0000 H   0  0  0  0  0  0  0  0  0  0  0  0
   14.7427   -0.6740    0.0000 H   0  0  0  0  0  0  0  0  0  0  0  0
   30.9313   -7.3300    0.0000 H   0  0  0  0  0  0  0  0  0  0  0  0
   22.4641   -6.4164    0.0000 H   0  0  0  0  0  0  0  0  0  0  0  0
   21.4044   -0.6205    0.0000 H   0  0  0  0  0  0  0  0  0  0  0  0
   28.0134   -4.4362    0.0000 H   0  0  0  0  0  0  0  0  0  0  0  0
   15.8551   -2.6007    0.0000 H   0  0  0  0  0  0  0  0  0  0  0  0
   12.5706    3.1953    0.0000 H   0  0  0  0  0  0  0  0  0  0  0  0
   32.0436   -5.4033    0.0000 H   0  0  0  0  0  0  0  0  0  0  0  0
   14.7954    3.1953    0.0000 H   0  0  0  0  0  0  0  0  0  0  0  0
   20.6990   -4.5629    0.0000 H   0  0  0  0  0  0  0  0  0  0  0  0
   20.1438   -5.1795    0.0000 H   0  0  0  0  0  0  0  0  0  0  0  0
   19.1730    0.7705    0.0000 H   0  0  0  0  0  0  0  0  0  0  0  0
   18.9166   -0.0186    0.0000 H   0  0  0  0  0  0  0  0  0  0  0  0
   25.7820   -3.0452    0.0000 H   0  0  0  0  0  0  0  0  0  0  0  0
   25.5256   -3.8343    0.0000 H   0  0  0  0  0  0  0  0  0  0  0  0
   14.0899   -0.7472    0.0000 H   0  0  0  0  0  0  0  0  0  0  0  0
   13.5347   -1.3638    0.0000 H   0  0  0  0  0  0  0  0  0  0  0  0
   31.3210   -7.8587    0.0000 H   0  0  0  0  0  0  0  0  0  0  0  0
   32.1326   -8.0312    0.0000 H   0  0  0  0  0  0  0  0  0  0  0  0
   12.5640    4.5863    0.0000 H   0  0  0  0  0  0  0  0  0  0  0  0
   12.3076    3.7972    0.0000 H   0  0  0  0  0  0  0  0  0  0  0  0
   20.6917   -6.7932    0.0000 H   0  0  0  0  0  0  0  0  0  0  0  0
   20.8445    1.1029    0.0000 H   0  0  0  0  0  0  0  0  0  0  0  0
   27.4535   -2.7128    0.0000 H   0  0  0  0  0  0  0  0  0  0  0  0
   13.5302   -2.0206    0.0000 H   0  0  0  0  0  0  0  0  0  0  0  0
   31.8903   -2.0789    0.0000 H   0  0  0  0  0  0  0  0  0  0  0  0
   33.2561   -6.7499    0.0000 H   0  0  0  0  0  0  0  0  0  0  0  0
   13.1306    4.9186    0.0000 H   0  0  0  0  0  0  0  0  0  0  0  0
   33.2212   -1.4295    0.0000 H   0  0  0  0  0  0  0  0  0  0  0  0
    9.1430    2.6923    0.0000 H   0  0  0  0  0  0  0  0  0  0  0  0
    9.2461    1.2150    0.0000 H   0  0  0  0  0  0  0  0  0  0  0  0
   30.9898   -0.0385    0.0000 H   0  0  0  0  0  0  0  0  0  0  0  0
   30.7334   -0.8276    0.0000 H   0  0  0  0  0  0  0  0  0  0  0  0
   32.6612    0.2939    0.0000 H   0  0  0  0  0  0  0  0  0  0  0  0
    7.4809    3.0685    0.0000 H   0  0  0  0  0  0  0  0  0  0  0  0
    6.9257    2.4519    0.0000 H   0  0  0  0  0  0  0  0  0  0  0  0
    7.4736    0.8383    0.0000 H   0  0  0  0  0  0  0  0  0  0  0  0
   21.8938   -1.8732    0.0000 H   0  0  0  0  0  0  0  0  0  0  0  0
   21.8105   -1.0805    0.0000 H   0  0  0  0  0  0  0  0  0  0  0  0
   23.0655   -6.5381    0.0000 H   0  0  0  0  0  0  0  0  0  0  0  0
   23.7937   -6.2139    0.0000 H   0  0  0  0  0  0  0  0  0  0  0  0
   16.4565   -2.7224    0.0000 H   0  0  0  0  0  0  0  0  0  0  0  0
   17.1847   -2.3982    0.0000 H   0  0  0  0  0  0  0  0  0  0  0  0
   27.4316   -5.6140    0.0000 H   0  0  0  0  0  0  0  0  0  0  0  0
   28.1597   -5.9382    0.0000 H   0  0  0  0  0  0  0  0  0  0  0  0
   15.2848    1.9426    0.0000 H   0  0  0  0  0  0  0  0  0  0  0  0
   15.2015    2.7352    0.0000 H   0  0  0  0  0  0  0  0  0  0  0  0
   30.8160   -4.5256    0.0000 H   0  0  0  0  0  0  0  0  0  0  0  0
   30.7327   -5.3183    0.0000 H   0  0  0  0  0  0  0  0  0  0  0  0
    9.8475    1.0933    0.0000 H   0  0  0  0  0  0  0  0  0  0  0  0
   10.5756    1.4175    0.0000 H   0  0  0  0  0  0  0  0  0  0  0  0
   32.6393   -2.6073    0.0000 H   0  0  0  0  0  0  0  0  0  0  0  0
   33.3675   -2.9315    0.0000 H   0  0  0  0  0  0  0  0  0  0  0  0
   36.0235   -3.2245    0.0000 H   0  0  0  0  0  0  0  0  0  0  0  0
   37.2514   -2.3966    0.0000 H   0  0  0  0  0  0  0  0  0  0  0  0
   36.5287   -4.8520    0.0000 H   0  0  0  0  0  0  0  0  0  0  0  0
   37.3403   -5.0245    0.0000 H   0  0  0  0  0  0  0  0  0  0  0  0
   38.4639   -3.7432    0.0000 H   0  0  0  0  0  0  0  0  0  0  0  0
    7.2925    6.3616    0.0000 H   0  0  0  0  0  0  0  0  0  0  0  0
    8.3214    7.4266    0.0000 H   0  0  0  0  0  0  0  0  0  0  0  0
    7.4888    8.9136    0.0000 H   0  0  0  0  0  0  0  0  0  0  0  0
    6.6591    8.9136    0.0000 H   0  0  0  0  0  0  0  0  0  0  0  0
    5.8266    7.4266    0.0000 H   0  0  0  0  0  0  0  0  0  0  0  0
    8.6758    5.7583    0.0000 H   0  0  0  0  0  0  0  0  0  0  0  0
    8.5925    6.5510    0.0000 H   0  0  0  0  0  0  0  0  0  0  0  0
   36.0238   -1.5189    0.0000 H   0  0  0  0  0  0  0  0  0  0  0  0
   35.9405   -2.3116    0.0000 H   0  0  0  0  0  0  0  0  0  0  0  0
   20.3301   -7.9840    0.0000 H   0  0  0  0  0  0  0  0  0  0  0  0
   18.8891    2.0114    0.0000 H   0  0  0  0  0  0  0  0  0  0  0  0
   28.3040   -1.8043    0.0000 H   0  0  0  0  0  0  0  0  0  0  0  0
   13.7211   -4.1683    0.0000 H   0  0  0  0  0  0  0  0  0  0  0  0
   34.4682   -6.4676    0.0000 H   0  0  0  0  0  0  0  0  0  0  0  0
   12.2801    5.8271    0.0000 H   0  0  0  0  0  0  0  0  0  0  0  0
   30.7058    1.2024    0.0000 H   0  0  0  0  0  0  0  0  0  0  0  0
    7.1121   -0.3526    0.0000 H   0  0  0  0  0  0  0  0  0  0  0  0
   18.9272   -8.7940    0.0000 H   0  0  0  0  0  0  0  0  0  0  0  0
   18.8891    3.6314    0.0000 H   0  0  0  0  0  0  0  0  0  0  0  0
   28.3040   -0.1843    0.0000 H   0  0  0  0  0  0  0  0  0  0  0  0
   12.3182   -4.9783    0.0000 H   0  0  0  0  0  0  0  0  0  0  0  0
   35.8711   -7.2776    0.0000 H   0  0  0  0  0  0  0  0  0  0  0  0
   12.2801    7.4471    0.0000 H   0  0  0  0  0  0  0  0  0  0  0  0
   30.7058    2.8224    0.0000 H   0  0  0  0  0  0  0  0  0  0  0  0
    8.9630    8.7805    0.0000 H   0  0  0  0  0  0  0  0  0  0  0  0
   39.6759   -3.4609    0.0000 H   0  0  0  0  0  0  0  0  0  0  0  0
    5.7092   -1.1626    0.0000 H   0  0  0  0  0  0  0  0  0  0  0  0
   36.7901   -0.5895    0.0000 H   0  0  0  0  0  0  0  0  0  0  0  0
    5.5668    9.5671    0.0000 H   0  0  0  0  0  0  0  0  0  0  0  0
   41.0789   -4.2709    0.0000 H   0  0  0  0  0  0  0  0  0  0  0  0
    4.0260   10.0677    0.0000 H   0  0  0  0  0  0  0  0  0  0  0  0
   17.1951   -8.7940    0.0000 H   0  0  0  0  0  0  0  0  0  0  0  0
   16.6582   -7.8640    0.0000 H   0  0  0  0  0  0  0  0  0  0  0  0
   19.7551    5.1314    0.0000 H   0  0  0  0  0  0  0  0  0  0  0  0
   20.8290    5.1314    0.0000 H   0  0  0  0  0  0  0  0  0  0  0  0
   27.4380    1.3157    0.0000 H   0  0  0  0  0  0  0  0  0  0  0  0
   26.3641    1.3157    0.0000 H   0  0  0  0  0  0  0  0  0  0  0  0
   10.0492   -4.0483    0.0000 H   0  0  0  0  0  0  0  0  0  0  0  0
   10.5861   -4.9783    0.0000 H   0  0  0  0  0  0  0  0  0  0  0  0
   36.7372   -8.7776    0.0000 H   0  0  0  0  0  0  0  0  0  0  0  0
   36.2002   -9.7076    0.0000 H   0  0  0  0  0  0  0  0  0  0  0  0
   13.1461    8.9471    0.0000 H   0  0  0  0  0  0  0  0  0  0  0  0
   14.2199    8.9471    0.0000 H   0  0  0  0  0  0  0  0  0  0  0  0
   32.6457    4.3224    0.0000 H   0  0  0  0  0  0  0  0  0  0  0  0
   31.5719    4.3224    0.0000 H   0  0  0  0  0  0  0  0  0  0  0  0
    3.4402   -0.2326    0.0000 H   0  0  0  0  0  0  0  0  0  0  0  0
    3.9771   -1.1626    0.0000 H   0  0  0  0  0  0  0  0  0  0  0  0
   41.9449   -5.7709    0.0000 H   0  0  0  0  0  0  0  0  0  0  0  0
   41.4080   -6.7009    0.0000 H   0  0  0  0  0  0  0  0  0  0  0  0
    2.3318    9.7076    0.0000 H   0  0  0  0  0  0  0  0  0  0  0  0
    2.0000    8.6862    0.0000 H   0  0  0  0  0  0  0  0  0  0  0  0
  1 19  1  0  0  0  0
  2 19  2  0  0  0  0
  3 20  1  0  0  0  0
  4 20  2  0  0  0  0
  5 21  1  0  0  0  0
  6 21  2  0  0  0  0
  7 22  1  0  0  0  0
  8 22  2  0  0  0  0
  9 23  1  0  0  0  0
 10 23  2  0  0  0  0
 11 24  1  0  0  0  0
 12 24  2  0  0  0  0
 13 25  1  0  0  0  0
 14 25  2  0  0  0  0
 15 26  1  0  0  0  0
 16 26  2  0  0  0  0
 17 27  1  0  0  0  0
 18 27  2  0  0  0  0
 19 36  1  0  0  0  0
 19 43  1  0  0  0  0
 20 37  1  0  0  0  0
 20 45  1  0  0  0  0
 21 38  1  0  0  0  0
 21 44  1  0  0  0  0
 22 39  1  0  0  0  0
 22 48  1  0  0  0  0
 23 40  1  0  0  0  0
 23 46  1  0  0  0  0
 24 41  1  0  0  0  0
 24 50  1  0  0  0  0
 25 42  1  0  0  0  0
 25 49  1  0  0  0  0
 26 47  1  0  0  0  0
 26 55  1  0  0  0  0
 27 52  1  0  0  0  0
 27 53  1  0  0  0  0
 28103  1  0  0  0  0
 28116  1  0  0  0  0
 29104  1  0  0  0  0
 29117  1  0  0  0  0
 30105  1  0  0  0  0
 30118  1  0  0  0  0
 31106  1  0  0  0  0
 31119  1  0  0  0  0
 32108  1  0  0  0  0
 32121  1  0  0  0  0
 33109  1  0  0  0  0
 33122  1  0  0  0  0
 34123  1  0  0  0  0
 34127  1  0  0  0  0
 35125  1  0  0  0  0
 35129  1  0  0  0  0
 36 98  1  0  0  0  0
 37 99  1  0  0  0  0
 38100  1  0  0  0  0
 39101  1  0  0  0  0
 40102  1  0  0  0  0
 41107  1  0  0  0  0
 42120  1  0  0  0  0
 43130  1  0  0  0  0
 44131  1  0  0  0  0
 45132  1  0  0  0  0
 46133  1  0  0  0  0
 47124  1  0  0  0  0
 48134  1  0  0  0  0
 49135  1  0  0  0  0
 50136  1  0  0  0  0
 51139  1  0  0  0  0
 51141  1  0  0  0  0
 52137  1  0  0  0  0
 53138  1  0  0  0  0
 54142  1  0  0  0  0
 54145  1  0  0  0  0
 55146  1  0  0  0  0
 56143  1  0  0  0  0
 56273  1  0  0  0  0
 57147  1  0  0  0  0
 57276  1  0  0  0  0
 58154  2  0  0  0  0
 59155  2  0  0  0  0
 60156  2  0  0  0  0
 61157  2  0  0  0  0
 62158  2  0  0  0  0
 63159  2  0  0  0  0
 64161  2  0  0  0  0
 65163  2  0  0  0  0
 66177  2  0  0  0  0
 67183  2  0  0  0  0
 68116  1  0  0  0  0
 68148  1  0  0  0  0
 68154  1  0  0  0  0
 69117  1  0  0  0  0
 69149  1  0  0  0  0
 69155  1  0  0  0  0
 70118  1  0  0  0  0
 70150  1  0  0  0  0
 70156  1  0  0  0  0
 71119  1  0  0  0  0
 71151  1  0  0  0  0
 71157  1  0  0  0  0
 72121  1  0  0  0  0
 72152  1  0  0  0  0
 72158  1  0  0  0  0
 73122  1  0  0  0  0
 73153  1  0  0  0  0
 73159  1  0  0  0  0
 74127  1  0  0  0  0
 74160  1  0  0  0  0
 74161  1  0  0  0  0
 75129  1  0  0  0  0
 75162  1  0  0  0  0
 75163  1  0  0  0  0
 76141  1  0  0  0  0
 76171  1  0  0  0  0
 76177  1  0  0  0  0
 77145  1  0  0  0  0
 77182  1  0  0  0  0
 77183  1  0  0  0  0
 78154  1  0  0  0  0
 78173  2  0  0  0  0
 79155  1  0  0  0  0
 79174  2  0  0  0  0
 80156  1  0  0  0  0
 80175  2  0  0  0  0
 81157  1  0  0  0  0
 81176  2  0  0  0  0
 82158  1  0  0  0  0
 82178  2  0  0  0  0
 83159  1  0  0  0  0
 83179  2  0  0  0  0
 84161  1  0  0  0  0
 84180  2  0  0  0  0
 85163  1  0  0  0  0
 85181  2  0  0  0  0
 86177  1  0  0  0  0
 86185  2  0  0  0  0
 87173  1  0  0  0  0
 87280  1  0  0  0  0
 87281  1  0  0  0  0
 88174  1  0  0  0  0
 88282  1  0  0  0  0
 88283  1  0  0  0  0
 89175  1  0  0  0  0
 89284  1  0  0  0  0
 89285  1  0  0  0  0
 90176  1  0  0  0  0
 90286  1  0  0  0  0
 90287  1  0  0  0  0
 91178  1  0  0  0  0
 91288  1  0  0  0  0
 91289  1  0  0  0  0
 92179  1  0  0  0  0
 92290  1  0  0  0  0
 92291  1  0  0  0  0
 93180  1  0  0  0  0
 93292  1  0  0  0  0
 93293  1  0  0  0  0
 94183  1  0  0  0  0
 94187  2  0  0  0  0
 95181  1  0  0  0  0
 95294  1  0  0  0  0
 95295  1  0  0  0  0
 96185  1  0  0  0  0
 96296  1  0  0  0  0
 96297  1  0  0  0  0
 97187  1  0  0  0  0
 97298  1  0  0  0  0
 97299  1  0  0  0  0
 98103  1  0  0  0  0
 98110  1  0  0  0  0
 98188  1  0  0  0  0
 99104  1  0  0  0  0
 99111  1  0  0  0  0
 99189  1  0  0  0  0
100105  1  0  0  0  0
100112  1  0  0  0  0
100190  1  0  0  0  0
101106  1  0  0  0  0
101113  1  0  0  0  0
101191  1  0  0  0  0
102108  1  0  0  0  0
102114  1  0  0  0  0
102192  1  0  0  0  0
103131  1  0  0  0  0
103193  1  0  0  0  0
104130  1  0  0  0  0
104194  1  0  0  0  0
105133  1  0  0  0  0
105195  1  0  0  0  0
106132  1  0  0  0  0
106196  1  0  0  0  0
107109  1  0  0  0  0
107115  1  0  0  0  0
107197  1  0  0  0  0
108135  1  0  0  0  0
108198  1  0  0  0  0
109134  1  0  0  0  0
109199  1  0  0  0  0
110116  1  0  0  0  0
110200  1  0  0  0  0
110201  1  0  0  0  0
111117  1  0  0  0  0
111202  1  0  0  0  0
111203  1  0  0  0  0
112118  1  0  0  0  0
112204  1  0  0  0  0
112205  1  0  0  0  0
113119  1  0  0  0  0
113206  1  0  0  0  0
113207  1  0  0  0  0
114121  1  0  0  0  0
114208  1  0  0  0  0
114209  1  0  0  0  0
115122  1  0  0  0  0
115210  1  0  0  0  0
115211  1  0  0  0  0
116212  1  0  0  0  0
117213  1  0  0  0  0
118214  1  0  0  0  0
119215  1  0  0  0  0
120123  1  0  0  0  0
120126  1  0  0  0  0
120216  1  0  0  0  0
121217  1  0  0  0  0
122218  1  0  0  0  0
123137  1  0  0  0  0
123219  1  0  0  0  0
124125  1  0  0  0  0
124128  1  0  0  0  0
124220  1  0  0  0  0
125136  1  0  0  0  0
125221  1  0  0  0  0
126127  1  0  0  0  0
126222  1  0  0  0  0
126223  1  0  0  0  0
127224  1  0  0  0  0
128129  1  0  0  0  0
128225  1  0  0  0  0
128226  1  0  0  0  0
129227  1  0  0  0  0
130228  1  0  0  0  0
130229  1  0  0  0  0
131230  1  0  0  0  0
131231  1  0  0  0  0
132232  1  0  0  0  0
132233  1  0  0  0  0
133234  1  0  0  0  0
133235  1  0  0  0  0
134236  1  0  0  0  0
134237  1  0  0  0  0
135238  1  0  0  0  0
135239  1  0  0  0  0
136240  1  0  0  0  0
136241  1  0  0  0  0
137242  1  0  0  0  0
137243  1  0  0  0  0
138139  1  0  0  0  0
138140  1  0  0  0  0
138244  1  0  0  0  0
139147  1  0  0  0  0
139245  1  0  0  0  0
140141  1  0  0  0  0
140246  1  0  0  0  0
140247  1  0  0  0  0
141248  1  0  0  0  0
142143  1  0  0  0  0
142146  1  0  0  0  0
142249  1  0  0  0  0
143144  1  0  0  0  0
143250  1  0  0  0  0
144145  1  0  0  0  0
144251  1  0  0  0  0
144252  1  0  0  0  0
145253  1  0  0  0  0
146254  1  0  0  0  0
146255  1  0  0  0  0
147256  1  0  0  0  0
147257  1  0  0  0  0
148164  2  0  0  0  0
148258  1  0  0  0  0
149165  2  0  0  0  0
149259  1  0  0  0  0
150166  2  0  0  0  0
150260  1  0  0  0  0
151167  2  0  0  0  0
151261  1  0  0  0  0
152168  2  0  0  0  0
152262  1  0  0  0  0
153169  2  0  0  0  0
153263  1  0  0  0  0
160170  2  0  0  0  0
160264  1  0  0  0  0
162172  2  0  0  0  0
162265  1  0  0  0  0
164173  1  0  0  0  0
164266  1  0  0  0  0
165174  1  0  0  0  0
165267  1  0  0  0  0
166175  1  0  0  0  0
166268  1  0  0  0  0
167176  1  0  0  0  0
167269  1  0  0  0  0
168178  1  0  0  0  0
168270  1  0  0  0  0
169179  1  0  0  0  0
169271  1  0  0  0  0
170180  1  0  0  0  0
170272  1  0  0  0  0
171184  2  0  0  0  0
171274  1  0  0  0  0
172181  1  0  0  0  0
172275  1  0  0  0  0
182186  2  0  0  0  0
182277  1  0  0  0  0
184185  1  0  0  0  0
184278  1  0  0  0  0
186187  1  0  0  0  0
186279  1  0  0  0  0
M  CHG  8   1  -1   3  -1   5  -1   7  -1   9  -1  11  -1  13  -1  15  -1
M  CHG  1  17  -1
M  END
> <PUBCHEM_COMPOUND_CID>
16197465

> <PUBCHEM_COMPOUND_CANONICALIZED>
0

> <PUBCHEM_CACTVS_COMPLEXITY>
7990

> <PUBCHEM_CACTVS_HBOND_ACCEPTOR>
59

> <PUBCHEM_CACTVS_HBOND_DONOR>
12

> <PUBCHEM_CACTVS_ROTATABLE_BOND>
56

> <PUBCHEM_CACTVS_SUBSKEYS>
AAADcfB//gP4AAAAAAAAAAAAAAAAASJEiRIgQIECAAAAAAAAAAAAHgAQCCAACBThgAYBAANABxCoACJmdACAAAEAAgAIAAAYABCBEAIAgAAOQAAHFgIDAACwMAIAAAAAAAAAAAAAAAAAAAAAAAAAAAAAAA==

> <PUBCHEM_NIST_INCHI>
InChI=1S/C90H121N30O40P9S18/c91-61-1-11-111(81(123)101-61)71-21-41(122)52(143-71)32-133-161(170,171)153-43-23-73(113-13-3-63(93)103-83(113)125)145-54(43)34-135-163(174,175)155-45-25-75(115-15-5-65(95)105-85(115)127)147-56(45)36-137-165(178,179)157-47-27-77(117-17-7-67(97)107-87(117)129)149-58(47)38-139-167(182,183)159-49-29-79(119-19-9-69(99)109-89(119)131)151-60(49)40-141-169(186,187)160-50-30-80(120-20-10-70(100)110-90(120)132)150-59(50)39-140-168(184,185)158-48-28-78(118-18-8-68(98)108-88(118)130)148-57(48)37-138-166(180,181)156-46-26-76(116-16-6-66(96)106-86(116)128)146-55(46)35-136-164(176,177)154-44-24-74(114-14-4-64(94)104-84(114)126)144-53(44)33-134-162(172,173)152-42-22-72(142-51(42)31-121)112-12-2-62(92)102-82(112)124/h1-20,41-60,71-80,121-122H,21-40H2,(H,170,171)(H,172,173)(H,174,175)(H,176,177)(H,178,179)(H,180,181)(H,182,183)(H,184,185)(H,186,187)(H2,91,101,123)(H2,92,102,124)(H2,93,103,125)(H2,94,104,126)(H2,95,105,127)(H2,96,106,128)(H2,97,107,129)(H2,98,108,130)(H2,99,109,131)(H2,100,110,132)/p-9

> <PUBCHEM_NIST_INCHIKEY>
YFYDNBWBBOVTTO-UHFFFAOYSA-E

> <PUBCHEM_XLOGP3_AA>
1.3

> <PUBCHEM_EXACT_MASS>
3107.026335

> <PUBCHEM_MOLECULAR_FORMULA>
C90H112N30O40P9S18-9

> <PUBCHEM_MOLECULAR_WEIGHT>
3109.963129

> <PUBCHEM_OPENEYE_CAN_SMILES>
C1C(C(OC1N2C=CC(=NC2=O)N)COP(=S)(OC3CC(OC3COP(=S)(OC4CC(OC4COP(=S)(OC5CC(OC5COP(=S)(OC6CC(OC6COP(=S)(OC7CC(OC7COP(=S)(OC8CC(OC8COP(=S)(OC9CC(OC9COP(=S)(OC1CC(OC1COP(=S)(OC1CC(OC1CO)N1C=CC(=NC1=O)N)[S-])N1C=CC(=NC1=O)N)[S-])N1C=CC(=NC1=O)N)[S-])N1C=CC(=NC1=O)N)[S-])N1C=CC(=NC1=O)N)[S-])N1C=CC(=NC1=O)N)[S-])N1C=CC(=NC1=O)N)[S-])N1C=CC(=NC1=O)N)[S-])N1C=CC(=NC1=O)N)[S-])O

> <PUBCHEM_OPENEYE_ISO_SMILES>
C1C(C(OC1N2C=CC(=NC2=O)N)COP(=S)(OC3CC(OC3COP(=S)(OC4CC(OC4COP(=S)(OC5CC(OC5COP(=S)(OC6CC(OC6COP(=S)(OC7CC(OC7COP(=S)(OC8CC(OC8COP(=S)(OC9CC(OC9COP(=S)(OC1CC(OC1COP(=S)(OC1CC(OC1CO)N1C=CC(=NC1=O)N)[S-])N1C=CC(=NC1=O)N)[S-])N1C=CC(=NC1=O)N)[S-])N1C=CC(=NC1=O)N)[S-])N1C=CC(=NC1=O)N)[S-])N1C=CC(=NC1=O)N)[S-])N1C=CC(=NC1=O)N)[S-])N1C=CC(=NC1=O)N)[S-])N1C=CC(=NC1=O)N)[S-])O

> <PUBCHEM_CACTVS_TPSA>
1180

> <PUBCHEM_MONOISOTOPIC_WEIGHT>
3107.026335

> <PUBCHEM_TOTAL_CHARGE>
-9

> <PUBCHEM_HEAVY_ATOM_COUNT>
187

> <PUBCHEM_ATOM_DEF_STEREO_COUNT>
0

> <PUBCHEM_ATOM_UDEF_STEREO_COUNT>
30

> <PUBCHEM_BOND_DEF_STEREO_COUNT>
0

> <PUBCHEM_BOND_UDEF_STEREO_COUNT>
0

> <PUBCHEM_ISOTOPIC_ATOM_COUNT>
0

> <PUBCHEM_COMPONENT_COUNT>
1

> <PUBCHEM_CACTVS_TAUTO_COUNT>
1001

> <PUBCHEM_COORDINATE_TYPE>
1
3

> <PUBCHEM_BONDANNOTATIONS>
103  131  3
104  130  3
105  133  3
106  132  3
108  135  3
109  134  3
123  137  3
125  136  3
139  147  3
142  146  3
148  164  8
149  165  8
150  166  8
151  167  8
152  168  8
153  169  8
160  170  8
162  172  8
164  173  8
165  174  8
166  175  8
167  176  8
168  178  8
169  179  8
170  180  8
171  184  8
172  181  8
182  186  8
184  185  8
186  187  8
98  36  3
99  37  3
100  38  3
101  39  3
102  40  3
107  41  3
120  42  3
124  47  3
138  53  3
143  56  3
116  68  3
68  148  8
68  154  8
117  69  3
69  149  8
69  155  8
118  70  3
70  150  8
70  156  8
119  71  3
71  151  8
71  157  8
121  72  3
72  152  8
72  158  8
122  73  3
73  153  8
73  159  8
127  74  3
74  160  8
74  161  8
129  75  3
75  162  8
75  163  8
141  76  3
76  171  8
76  177  8
145  77  3
77  182  8
77  183  8
78  154  8
78  173  8
79  155  8
79  174  8
80  156  8
80  175  8
81  157  8
81  176  8
82  158  8
82  178  8
83  159  8
83  179  8
84  161  8
84  180  8
85  163  8
85  181  8
86  177  8
86  185  8
94  183  8
94  187  8

$$$$

