16197466
  -OEChem-10021005172D

239254  0     1  0  0  0  0  0999 V2000
   20.9297   -2.2810    0.0000 S   0  5  0  0  0  0  0  0  0  0  0  0
   19.3117   -3.4566    0.0000 S   0  0  0  0  0  0  0  0  0  0  0  0
   16.6650   -2.0362    0.0000 S   0  5  0  0  0  0  0  0  0  0  0  0
   16.8741   -0.0472    0.0000 S   0  0  0  0  0  0  0  0  0  0  0  0
   23.2741   -5.8520    0.0000 S   0  5  0  0  0  0  0  0  0  0  0  0
   23.4831   -3.8629    0.0000 S   0  0  0  0  0  0  0  0  0  0  0  0
   14.3207    1.5347    0.0000 S   0  5  0  0  0  0  0  0  0  0  0  0
   12.7027    0.3591    0.0000 S   0  0  0  0  0  0  0  0  0  0  0  0
   28.9400   -5.0787    0.0000 S   0  5  0  0  0  0  0  0  0  0  0  0
   27.3220   -6.2542    0.0000 S   0  0  0  0  0  0  0  0  0  0  0  0
   10.0560    1.7795    0.0000 S   0  5  0  0  0  0  0  0  0  0  0  0
   10.2651    3.7685    0.0000 S   0  0  0  0  0  0  0  0  0  0  0  0
   30.9011   -2.4621    0.0000 S   0  5  0  0  0  0  0  0  0  0  0  0
   29.0741   -3.2755    0.0000 S   0  0  0  0  0  0  0  0  0  0  0  0
   20.1207   -2.8688    0.0000 P   0  0  3  0  0  0  0  0  0  0  0  0
   16.7696   -1.0417    0.0000 P   0  0  3  0  0  0  0  0  0  0  0  0
   23.3786   -4.8574    0.0000 P   0  0  3  0  0  0  0  0  0  0  0  0
   13.5117    0.9469    0.0000 P   0  0  3  0  0  0  0  0  0  0  0  0
   28.1310   -5.6664    0.0000 P   0  0  3  0  0  0  0  0  0  0  0  0
   10.1605    2.7740    0.0000 P   0  0  3  0  0  0  0  0  0  0  0  0
   29.9876   -2.8688    0.0000 P   0  0  3  0  0  0  0  0  0  0  0  0
   20.1326   -6.2005    0.0000 O   0  0  0  0  0  0  0  0  0  0  0  0
   19.6609    0.6138    0.0000 O   0  0  0  0  0  0  0  0  0  0  0  0
   26.2699   -3.2019    0.0000 O   0  0  0  0  0  0  0  0  0  0  0  0
   13.5236   -2.3848    0.0000 O   0  0  0  0  0  0  0  0  0  0  0  0
   31.1914   -5.7128    0.0000 O   0  0  0  0  0  0  0  0  0  0  0  0
   13.0519    4.4296    0.0000 O   0  0  0  0  0  0  0  0  0  0  0  0
   20.7085   -3.6778    0.0000 O   0  0  0  0  0  0  0  0  0  0  0  0
   17.7641   -1.1462    0.0000 O   0  0  0  0  0  0  0  0  0  0  0  0
   24.3731   -4.9620    0.0000 O   0  0  0  0  0  0  0  0  0  0  0  0
   14.0995    0.1379    0.0000 O   0  0  0  0  0  0  0  0  0  0  0  0
   28.7188   -6.4755    0.0000 O   0  0  0  0  0  0  0  0  0  0  0  0
   11.1551    2.6695    0.0000 O   0  0  0  0  0  0  0  0  0  0  0  0
   19.5329   -2.0598    0.0000 O   0  0  0  0  0  0  0  0  0  0  0  0
   22.3841   -4.7529    0.0000 O   0  0  0  0  0  0  0  0  0  0  0  0
   15.7750   -0.9372    0.0000 O   0  0  0  0  0  0  0  0  0  0  0  0
   27.5432   -4.8574    0.0000 O   0  0  0  0  0  0  0  0  0  0  0  0
   31.4777   -0.1952    0.0000 O   0  0  0  0  0  0  0  0  0  0  0  0
   12.9239    1.7559    0.0000 O   0  0  0  0  0  0  0  0  0  0  0  0
   30.3943   -3.7823    0.0000 O   0  0  0  0  0  0  0  0  0  0  0  0
   29.5809   -1.9552    0.0000 O   0  0  0  0  0  0  0  0  0  0  0  0
    6.9146    1.4309    0.0000 O   0  0  0  0  0  0  0  0  0  0  0  0
    9.1660    2.8785    0.0000 O   0  0  0  0  0  0  0  0  0  0  0  0
    7.4904    3.9536    0.0000 O   0  0  0  0  0  0  0  0  0  0  0  0
   32.7510   -1.8507    0.0000 O   0  0  0  0  0  0  0  0  0  0  0  0
   17.4870   -4.7938    0.0000 O   0  0  0  0  0  0  0  0  0  0  0  0
   20.5839    2.2016    0.0000 O   0  0  0  0  0  0  0  0  0  0  0  0
   23.7288   -1.6141    0.0000 O   0  0  0  0  0  0  0  0  0  0  0  0
   10.8780   -0.9781    0.0000 O   0  0  0  0  0  0  0  0  0  0  0  0
   31.2960   -8.7073    0.0000 O   0  0  0  0  0  0  0  0  0  0  0  0
   13.9749    6.0173    0.0000 O   0  0  0  0  0  0  0  0  0  0  0  0
   32.4007    1.3926    0.0000 O   0  0  0  0  0  0  0  0  0  0  0  0
    6.0010   -0.1624    0.0000 O   0  0  0  0  0  0  0  0  0  0  0  0
   18.3531   -6.2938    0.0000 N   0  0  0  0  0  0  0  0  0  0  0  0
   18.8519    2.2016    0.0000 N   0  0  0  0  0  0  0  0  0  0  0  0
   25.4609   -1.6141    0.0000 N   0  0  0  0  0  0  0  0  0  0  0  0
   11.7440   -2.4781    0.0000 N   0  0  0  0  0  0  0  0  0  0  0  0
   32.1620   -7.2073    0.0000 N   0  0  0  0  0  0  0  0  0  0  0  0
   12.2428    6.0173    0.0000 N   0  0  0  0  0  0  0  0  0  0  0  0
   30.6686    1.3926    0.0000 N   0  0  0  0  0  0  0  0  0  0  0  0
    5.1350    1.3376    0.0000 N   0  0  0  0  0  0  0  0  0  0  0  0
   16.6210   -6.2938    0.0000 N   0  0  0  0  0  0  0  0  0  0  0  0
   19.7179    3.7016    0.0000 N   0  0  0  0  0  0  0  0  0  0  0  0
   24.5949   -0.1141    0.0000 N   0  0  0  0  0  0  0  0  0  0  0  0
   10.0120   -2.4781    0.0000 N   0  0  0  0  0  0  0  0  0  0  0  0
   33.0280   -8.7073    0.0000 N   0  0  0  0  0  0  0  0  0  0  0  0
   13.1089    7.5173    0.0000 N   0  0  0  0  0  0  0  0  0  0  0  0
   31.5347    2.8926    0.0000 N   0  0  0  0  0  0  0  0  0  0  0  0
   15.7550   -7.7938    0.0000 N   0  0  0  0  0  0  0  0  0  0  0  0
   18.8519    5.2016    0.0000 N   0  0  0  0  0  0  0  0  0  0  0  0
   25.4609    1.3859    0.0000 N   0  0  0  0  0  0  0  0  0  0  0  0
    9.1459   -3.9781    0.0000 N   0  0  0  0  0  0  0  0  0  0  0  0
    4.2690   -0.1624    0.0000 N   0  0  0  0  0  0  0  0  0  0  0  0
   34.7601   -8.7073    0.0000 N   0  0  0  0  0  0  0  0  0  0  0  0
   12.2428    9.0173    0.0000 N   0  0  0  0  0  0  0  0  0  0  0  0
   30.6686    4.3926    0.0000 N   0  0  0  0  0  0  0  0  0  0  0  0
    2.5369   -0.1624    0.0000 N   0  0  0  0  0  0  0  0  0  0  0  0
   20.3018   -4.5914    0.0000 C   0  0  3  0  0  0  0  0  0  0  0  0
   18.3519   -0.3372    0.0000 C   0  0  3  0  0  0  0  0  0  0  0  0
   24.9609   -4.1529    0.0000 C   0  0  3  0  0  0  0  0  0  0  0  0
   13.6927   -0.7756    0.0000 C   0  0  3  0  0  0  0  0  0  0  0  0
   20.8018   -5.4574    0.0000 C   0  0  3  0  0  0  0  0  0  0  0  0
   19.3519   -0.3372    0.0000 C   0  0  3  0  0  0  0  0  0  0  0  0
   25.9609   -4.1529    0.0000 C   0  0  3  0  0  0  0  0  0  0  0  0
   14.1927   -1.6417    0.0000 C   0  0  3  0  0  0  0  0  0  0  0  0
   19.3236   -4.7993    0.0000 C   0  0  0  0  0  0  0  0  0  0  0  0
   18.0429    0.6138    0.0000 C   0  0  0  0  0  0  0  0  0  0  0  0
   24.6519   -3.2019    0.0000 C   0  0  0  0  0  0  0  0  0  0  0  0
   29.7133   -6.3709    0.0000 C   0  0  3  0  0  0  0  0  0  0  0  0
   12.7146   -0.9836    0.0000 C   0  0  0  0  0  0  0  0  0  0  0  0
   19.2191   -5.7938    0.0000 C   0  0  3  0  0  0  0  0  0  0  0  0
   18.8519    1.2016    0.0000 C   0  0  3  0  0  0  0  0  0  0  0  0
   30.2133   -5.5049    0.0000 C   0  0  3  0  0  0  0  0  0  0  0  0
   25.4609   -2.6141    0.0000 C   0  0  3  0  0  0  0  0  0  0  0  0
   12.6101   -1.9781    0.0000 C   0  0  3  0  0  0  0  0  0  0  0  0
   11.7428    3.4785    0.0000 C   0  0  3  0  0  0  0  0  0  0  0  0
   12.7428    3.4785    0.0000 C   0  0  3  0  0  0  0  0  0  0  0  0
   30.3824   -7.1141    0.0000 C   0  0  0  0  0  0  0  0  0  0  0  0
   31.2960   -6.7073    0.0000 C   0  0  3  0  0  0  0  0  0  0  0  0
   11.4338    4.4296    0.0000 C   0  0  0  0  0  0  0  0  0  0  0  0
   12.2428    5.0173    0.0000 C   0  0  3  0  0  0  0  0  0  0  0  0
   19.9397   -1.1462    0.0000 C   0  0  0  0  0  0  0  0  0  0  0  0
   21.7963   -5.5619    0.0000 C   0  0  0  0  0  0  0  0  0  0  0  0
   15.1873   -1.7462    0.0000 C   0  0  0  0  0  0  0  0  0  0  0  0
   26.5487   -4.9620    0.0000 C   0  0  0  0  0  0  0  0  0  0  0  0
   13.3306    2.6695    0.0000 C   0  0  0  0  0  0  0  0  0  0  0  0
   29.8065   -4.5914    0.0000 C   0  0  0  0  0  0  0  0  0  0  0  0
   30.1686   -1.1462    0.0000 C   0  0  3  0  0  0  0  0  0  0  0  0
   31.1686   -1.1462    0.0000 C   0  0  3  0  0  0  0  0  0  0  0  0
   29.8596   -0.1952    0.0000 C   0  0  0  0  0  0  0  0  0  0  0  0
   30.6686    0.3926    0.0000 C   0  0  3  0  0  0  0  0  0  0  0  0
    7.5837    2.1740    0.0000 C   0  0  3  0  0  0  0  0  0  0  0  0
    7.0837    3.0401    0.0000 C   0  0  3  0  0  0  0  0  0  0  0  0
    6.1056    2.8322    0.0000 C   0  0  0  0  0  0  0  0  0  0  0  0
    6.0010    1.8376    0.0000 C   0  0  3  0  0  0  0  0  0  0  0  0
    8.5782    2.0695    0.0000 C   0  0  0  0  0  0  0  0  0  0  0  0
   31.7564   -1.9552    0.0000 C   0  0  0  0  0  0  0  0  0  0  0  0
   18.3531   -7.2938    0.0000 C   0  0  0  0  0  0  0  0  0  0  0  0
   17.9858    2.7016    0.0000 C   0  0  0  0  0  0  0  0  0  0  0  0
   26.3269   -1.1141    0.0000 C   0  0  0  0  0  0  0  0  0  0  0  0
   11.7440   -3.4781    0.0000 C   0  0  0  0  0  0  0  0  0  0  0  0
   17.4870   -5.7938    0.0000 C   0  0  0  0  0  0  0  0  0  0  0  0
   19.7179    2.7016    0.0000 C   0  0  0  0  0  0  0  0  0  0  0  0
   24.5949   -1.1141    0.0000 C   0  0  0  0  0  0  0  0  0  0  0  0
   10.8780   -1.9781    0.0000 C   0  0  0  0  0  0  0  0  0  0  0  0
   33.0280   -6.7073    0.0000 C   0  0  0  0  0  0  0  0  0  0  0  0
   11.3768    6.5173    0.0000 C   0  0  0  0  0  0  0  0  0  0  0  0
   32.1620   -8.2073    0.0000 C   0  0  0  0  0  0  0  0  0  0  0  0
   13.1089    6.5173    0.0000 C   0  0  0  0  0  0  0  0  0  0  0  0
   17.4870   -7.7938    0.0000 C   0  0  0  0  0  0  0  0  0  0  0  0
   17.9858    3.7016    0.0000 C   0  0  0  0  0  0  0  0  0  0  0  0
   26.3269   -0.1141    0.0000 C   0  0  0  0  0  0  0  0  0  0  0  0
   10.8780   -3.9781    0.0000 C   0  0  0  0  0  0  0  0  0  0  0  0
   29.8026    1.8926    0.0000 C   0  0  0  0  0  0  0  0  0  0  0  0
   33.8940   -7.2073    0.0000 C   0  0  0  0  0  0  0  0  0  0  0  0
   31.5347    1.8926    0.0000 C   0  0  0  0  0  0  0  0  0  0  0  0
   11.3768    7.5173    0.0000 C   0  0  0  0  0  0  0  0  0  0  0  0
   16.6210   -7.2938    0.0000 C   0  0  0  0  0  0  0  0  0  0  0  0
   18.8519    4.2016    0.0000 C   0  0  0  0  0  0  0  0  0  0  0  0
   25.4609    0.3859    0.0000 C   0  0  0  0  0  0  0  0  0  0  0  0
   10.0120   -3.4781    0.0000 C   0  0  0  0  0  0  0  0  0  0  0  0
   33.8940   -8.2073    0.0000 C   0  0  0  0  0  0  0  0  0  0  0  0
    4.2690    1.8376    0.0000 C   0  0  0  0  0  0  0  0  0  0  0  0
   12.2428    8.0173    0.0000 C   0  0  0  0  0  0  0  0  0  0  0  0
    5.1350    0.3376    0.0000 C   0  0  0  0  0  0  0  0  0  0  0  0
   29.8026    2.8926    0.0000 C   0  0  0  0  0  0  0  0  0  0  0  0
   30.6686    3.3926    0.0000 C   0  0  0  0  0  0  0  0  0  0  0  0
    3.4030    1.3376    0.0000 C   0  0  0  0  0  0  0  0  0  0  0  0
    3.4030    0.3376    0.0000 C   0  0  0  0  0  0  0  0  0  0  0  0
   20.9209   -4.5589    0.0000 H   0  0  0  0  0  0  0  0  0  0  0  0
   17.7395   -0.2402    0.0000 H   0  0  0  0  0  0  0  0  0  0  0  0
   24.3485   -4.0560    0.0000 H   0  0  0  0  0  0  0  0  0  0  0  0
   13.3026   -0.2938    0.0000 H   0  0  0  0  0  0  0  0  0  0  0  0
   21.0239   -6.0362    0.0000 H   0  0  0  0  0  0  0  0  0  0  0  0
   19.9642   -0.2402    0.0000 H   0  0  0  0  0  0  0  0  0  0  0  0
   26.5733   -4.0560    0.0000 H   0  0  0  0  0  0  0  0  0  0  0  0
   14.4149   -2.2205    0.0000 H   0  0  0  0  0  0  0  0  0  0  0  0
   19.2588   -4.1827    0.0000 H   0  0  0  0  0  0  0  0  0  0  0  0
   18.7036   -4.7993    0.0000 H   0  0  0  0  0  0  0  0  0  0  0  0
   17.7329    1.1508    0.0000 H   0  0  0  0  0  0  0  0  0  0  0  0
   17.4765    0.3617    0.0000 H   0  0  0  0  0  0  0  0  0  0  0  0
   24.3419   -2.6650    0.0000 H   0  0  0  0  0  0  0  0  0  0  0  0
   24.0855   -3.4541    0.0000 H   0  0  0  0  0  0  0  0  0  0  0  0
   29.3756   -5.8510    0.0000 H   0  0  0  0  0  0  0  0  0  0  0  0
   12.6498   -0.3670    0.0000 H   0  0  0  0  0  0  0  0  0  0  0  0
   12.0946   -0.9836    0.0000 H   0  0  0  0  0  0  0  0  0  0  0  0
   18.6991   -5.4561    0.0000 H   0  0  0  0  0  0  0  0  0  0  0  0
   19.4043    1.4831    0.0000 H   0  0  0  0  0  0  0  0  0  0  0  0
   30.6035   -5.0231    0.0000 H   0  0  0  0  0  0  0  0  0  0  0  0
   24.9085   -2.3326    0.0000 H   0  0  0  0  0  0  0  0  0  0  0  0
   12.6425   -2.5972    0.0000 H   0  0  0  0  0  0  0  0  0  0  0  0
   11.1305    3.5755    0.0000 H   0  0  0  0  0  0  0  0  0  0  0  0
   13.3552    3.5755    0.0000 H   0  0  0  0  0  0  0  0  0  0  0  0
   29.8808   -7.4785    0.0000 H   0  0  0  0  0  0  0  0  0  0  0  0
   30.6924   -7.6510    0.0000 H   0  0  0  0  0  0  0  0  0  0  0  0
   31.8159   -6.3697    0.0000 H   0  0  0  0  0  0  0  0  0  0  0  0
   11.1238    4.9665    0.0000 H   0  0  0  0  0  0  0  0  0  0  0  0
   10.8674    4.1774    0.0000 H   0  0  0  0  0  0  0  0  0  0  0  0
   12.7953    5.2988    0.0000 H   0  0  0  0  0  0  0  0  0  0  0  0
   20.4537   -1.4929    0.0000 H   0  0  0  0  0  0  0  0  0  0  0  0
   20.3703   -0.7002    0.0000 H   0  0  0  0  0  0  0  0  0  0  0  0
   21.6254   -6.1579    0.0000 H   0  0  0  0  0  0  0  0  0  0  0  0
   22.3535   -5.8337    0.0000 H   0  0  0  0  0  0  0  0  0  0  0  0
   15.0164   -2.3422    0.0000 H   0  0  0  0  0  0  0  0  0  0  0  0
   15.7445   -2.0180    0.0000 H   0  0  0  0  0  0  0  0  0  0  0  0
   25.9914   -5.2338    0.0000 H   0  0  0  0  0  0  0  0  0  0  0  0
   26.7196   -5.5579    0.0000 H   0  0  0  0  0  0  0  0  0  0  0  0
   13.8446    2.3228    0.0000 H   0  0  0  0  0  0  0  0  0  0  0  0
   13.7613    3.1155    0.0000 H   0  0  0  0  0  0  0  0  0  0  0  0
   29.3759   -4.1454    0.0000 H   0  0  0  0  0  0  0  0  0  0  0  0
   29.2925   -4.9381    0.0000 H   0  0  0  0  0  0  0  0  0  0  0  0
   30.4501   -1.6987    0.0000 H   0  0  0  0  0  0  0  0  0  0  0  0
   31.7810   -1.0492    0.0000 H   0  0  0  0  0  0  0  0  0  0  0  0
   29.5496    0.3418    0.0000 H   0  0  0  0  0  0  0  0  0  0  0  0
   29.2932   -0.4474    0.0000 H   0  0  0  0  0  0  0  0  0  0  0  0
   31.2211    0.6741    0.0000 H   0  0  0  0  0  0  0  0  0  0  0  0
    7.8059    1.5952    0.0000 H   0  0  0  0  0  0  0  0  0  0  0  0
    7.7029    3.0725    0.0000 H   0  0  0  0  0  0  0  0  0  0  0  0
    6.0408    3.4488    0.0000 H   0  0  0  0  0  0  0  0  0  0  0  0
    5.4856    2.8322    0.0000 H   0  0  0  0  0  0  0  0  0  0  0  0
    5.4811    2.1753    0.0000 H   0  0  0  0  0  0  0  0  0  0  0  0
    8.4073    1.4735    0.0000 H   0  0  0  0  0  0  0  0  0  0  0  0
    9.1355    1.7977    0.0000 H   0  0  0  0  0  0  0  0  0  0  0  0
   31.1992   -2.2270    0.0000 H   0  0  0  0  0  0  0  0  0  0  0  0
   31.9273   -2.5512    0.0000 H   0  0  0  0  0  0  0  0  0  0  0  0
   18.8900   -7.6038    0.0000 H   0  0  0  0  0  0  0  0  0  0  0  0
   17.4489    2.3916    0.0000 H   0  0  0  0  0  0  0  0  0  0  0  0
   26.8638   -1.4241    0.0000 H   0  0  0  0  0  0  0  0  0  0  0  0
   12.2810   -3.7881    0.0000 H   0  0  0  0  0  0  0  0  0  0  0  0
   33.0280   -6.0873    0.0000 H   0  0  0  0  0  0  0  0  0  0  0  0
   10.8399    6.2073    0.0000 H   0  0  0  0  0  0  0  0  0  0  0  0
   17.4870   -8.4138    0.0000 H   0  0  0  0  0  0  0  0  0  0  0  0
   17.4489    4.0116    0.0000 H   0  0  0  0  0  0  0  0  0  0  0  0
   26.8638    0.1959    0.0000 H   0  0  0  0  0  0  0  0  0  0  0  0
   10.8780   -4.5981    0.0000 H   0  0  0  0  0  0  0  0  0  0  0  0
    7.1260    4.4552    0.0000 H   0  0  0  0  0  0  0  0  0  0  0  0
   29.2657    1.5826    0.0000 H   0  0  0  0  0  0  0  0  0  0  0  0
   34.4310   -6.8973    0.0000 H   0  0  0  0  0  0  0  0  0  0  0  0
   10.8399    7.8273    0.0000 H   0  0  0  0  0  0  0  0  0  0  0  0
   33.1154   -2.3523    0.0000 H   0  0  0  0  0  0  0  0  0  0  0  0
    4.2690    2.4576    0.0000 H   0  0  0  0  0  0  0  0  0  0  0  0
   29.2657    3.2026    0.0000 H   0  0  0  0  0  0  0  0  0  0  0  0
    2.8660    1.6476    0.0000 H   0  0  0  0  0  0  0  0  0  0  0  0
   15.7550   -8.4138    0.0000 H   0  0  0  0  0  0  0  0  0  0  0  0
   15.2180   -7.4838    0.0000 H   0  0  0  0  0  0  0  0  0  0  0  0
   18.3149    5.5116    0.0000 H   0  0  0  0  0  0  0  0  0  0  0  0
   19.3888    5.5116    0.0000 H   0  0  0  0  0  0  0  0  0  0  0  0
   25.9978    1.6959    0.0000 H   0  0  0  0  0  0  0  0  0  0  0  0
   24.9240    1.6959    0.0000 H   0  0  0  0  0  0  0  0  0  0  0  0
    8.6090   -3.6681    0.0000 H   0  0  0  0  0  0  0  0  0  0  0  0
    9.1459   -4.5981    0.0000 H   0  0  0  0  0  0  0  0  0  0  0  0
   35.2970   -8.3973    0.0000 H   0  0  0  0  0  0  0  0  0  0  0  0
   34.7601   -9.3273    0.0000 H   0  0  0  0  0  0  0  0  0  0  0  0
   11.7059    9.3273    0.0000 H   0  0  0  0  0  0  0  0  0  0  0  0
   12.7798    9.3273    0.0000 H   0  0  0  0  0  0  0  0  0  0  0  0
   31.2056    4.7026    0.0000 H   0  0  0  0  0  0  0  0  0  0  0  0
   30.1317    4.7026    0.0000 H   0  0  0  0  0  0  0  0  0  0  0  0
    2.0000    0.1476    0.0000 H   0  0  0  0  0  0  0  0  0  0  0  0
    2.5369   -0.7824    0.0000 H   0  0  0  0  0  0  0  0  0  0  0  0
  1 15  1  0  0  0  0
  2 15  2  0  0  0  0
  3 16  1  0  0  0  0
  4 16  2  0  0  0  0
  5 17  1  0  0  0  0
  6 17  2  0  0  0  0
  7 18  1  0  0  0  0
  8 18  2  0  0  0  0
  9 19  1  0  0  0  0
 10 19  2  0  0  0  0
 11 20  1  0  0  0  0
 12 20  2  0  0  0  0
 13 21  1  0  0  0  0
 14 21  2  0  0  0  0
 15 28  1  0  0  0  0
 15 34  1  0  0  0  0
 16 29  1  0  0  0  0
 16 36  1  0  0  0  0
 17 30  1  0  0  0  0
 17 35  1  0  0  0  0
 18 31  1  0  0  0  0
 18 39  1  0  0  0  0
 19 32  1  0  0  0  0
 19 37  1  0  0  0  0
 20 33  1  0  0  0  0
 20 43  1  0  0  0  0
 21 40  1  0  0  0  0
 21 41  1  0  0  0  0
 22 82  1  0  0  0  0
 22 91  1  0  0  0  0
 23 83  1  0  0  0  0
 23 92  1  0  0  0  0
 24 84  1  0  0  0  0
 24 94  1  0  0  0  0
 25 85  1  0  0  0  0
 25 95  1  0  0  0  0
 26 93  1  0  0  0  0
 26 99  1  0  0  0  0
 27 97  1  0  0  0  0
 27101  1  0  0  0  0
 28 78  1  0  0  0  0
 29 79  1  0  0  0  0
 30 80  1  0  0  0  0
 31 81  1  0  0  0  0
 32 89  1  0  0  0  0
 33 96  1  0  0  0  0
 34102  1  0  0  0  0
 35103  1  0  0  0  0
 36104  1  0  0  0  0
 37105  1  0  0  0  0
 38109  1  0  0  0  0
 38111  1  0  0  0  0
 39106  1  0  0  0  0
 40107  1  0  0  0  0
 41108  1  0  0  0  0
 42112  1  0  0  0  0
 42115  1  0  0  0  0
 43116  1  0  0  0  0
 44113  1  0  0  0  0
 44216  1  0  0  0  0
 45117  1  0  0  0  0
 45220  1  0  0  0  0
 46122  2  0  0  0  0
 47123  2  0  0  0  0
 48124  2  0  0  0  0
 49125  2  0  0  0  0
 50128  2  0  0  0  0
 51129  2  0  0  0  0
 52136  2  0  0  0  0
 53145  2  0  0  0  0
 54 91  1  0  0  0  0
 54118  1  0  0  0  0
 54122  1  0  0  0  0
 55 92  1  0  0  0  0
 55119  1  0  0  0  0
 55123  1  0  0  0  0
 56 94  1  0  0  0  0
 56120  1  0  0  0  0
 56124  1  0  0  0  0
 57 95  1  0  0  0  0
 57121  1  0  0  0  0
 57125  1  0  0  0  0
 58 99  1  0  0  0  0
 58126  1  0  0  0  0
 58128  1  0  0  0  0
 59101  1  0  0  0  0
 59127  1  0  0  0  0
 59129  1  0  0  0  0
 60111  1  0  0  0  0
 60134  1  0  0  0  0
 60136  1  0  0  0  0
 61115  1  0  0  0  0
 61143  1  0  0  0  0
 61145  1  0  0  0  0
 62122  1  0  0  0  0
 62138  2  0  0  0  0
 63123  1  0  0  0  0
 63139  2  0  0  0  0
 64124  1  0  0  0  0
 64140  2  0  0  0  0
 65125  1  0  0  0  0
 65141  2  0  0  0  0
 66128  1  0  0  0  0
 66142  2  0  0  0  0
 67129  1  0  0  0  0
 67144  2  0  0  0  0
 68136  1  0  0  0  0
 68147  2  0  0  0  0
 69138  1  0  0  0  0
 69224  1  0  0  0  0
 69225  1  0  0  0  0
 70139  1  0  0  0  0
 70226  1  0  0  0  0
 70227  1  0  0  0  0
 71140  1  0  0  0  0
 71228  1  0  0  0  0
 71229  1  0  0  0  0
 72141  1  0  0  0  0
 72230  1  0  0  0  0
 72231  1  0  0  0  0
 73145  1  0  0  0  0
 73149  2  0  0  0  0
 74142  1  0  0  0  0
 74232  1  0  0  0  0
 74233  1  0  0  0  0
 75144  1  0  0  0  0
 75234  1  0  0  0  0
 75235  1  0  0  0  0
 76147  1  0  0  0  0
 76236  1  0  0  0  0
 76237  1  0  0  0  0
 77149  1  0  0  0  0
 77238  1  0  0  0  0
 77239  1  0  0  0  0
 78 82  1  0  0  0  0
 78 86  1  0  0  0  0
 78150  1  0  0  0  0
 79 83  1  0  0  0  0
 79 87  1  0  0  0  0
 79151  1  0  0  0  0
 80 84  1  0  0  0  0
 80 88  1  0  0  0  0
 80152  1  0  0  0  0
 81 85  1  0  0  0  0
 81 90  1  0  0  0  0
 81153  1  0  0  0  0
 82103  1  0  0  0  0
 82154  1  0  0  0  0
 83102  1  0  0  0  0
 83155  1  0  0  0  0
 84105  1  0  0  0  0
 84156  1  0  0  0  0
 85104  1  0  0  0  0
 85157  1  0  0  0  0
 86 91  1  0  0  0  0
 86158  1  0  0  0  0
 86159  1  0  0  0  0
 87 92  1  0  0  0  0
 87160  1  0  0  0  0
 87161  1  0  0  0  0
 88 94  1  0  0  0  0
 88162  1  0  0  0  0
 88163  1  0  0  0  0
 89 93  1  0  0  0  0
 89 98  1  0  0  0  0
 89164  1  0  0  0  0
 90 95  1  0  0  0  0
 90165  1  0  0  0  0
 90166  1  0  0  0  0
 91167  1  0  0  0  0
 92168  1  0  0  0  0
 93107  1  0  0  0  0
 93169  1  0  0  0  0
 94170  1  0  0  0  0
 95171  1  0  0  0  0
 96 97  1  0  0  0  0
 96100  1  0  0  0  0
 96172  1  0  0  0  0
 97106  1  0  0  0  0
 97173  1  0  0  0  0
 98 99  1  0  0  0  0
 98174  1  0  0  0  0
 98175  1  0  0  0  0
 99176  1  0  0  0  0
100101  1  0  0  0  0
100177  1  0  0  0  0
100178  1  0  0  0  0
101179  1  0  0  0  0
102180  1  0  0  0  0
102181  1  0  0  0  0
103182  1  0  0  0  0
103183  1  0  0  0  0
104184  1  0  0  0  0
104185  1  0  0  0  0
105186  1  0  0  0  0
105187  1  0  0  0  0
106188  1  0  0  0  0
106189  1  0  0  0  0
107190  1  0  0  0  0
107191  1  0  0  0  0
108109  1  0  0  0  0
108110  1  0  0  0  0
108192  1  0  0  0  0
109117  1  0  0  0  0
109193  1  0  0  0  0
110111  1  0  0  0  0
110194  1  0  0  0  0
110195  1  0  0  0  0
111196  1  0  0  0  0
112113  1  0  0  0  0
112116  1  0  0  0  0
112197  1  0  0  0  0
113114  1  0  0  0  0
113198  1  0  0  0  0
114115  1  0  0  0  0
114199  1  0  0  0  0
114200  1  0  0  0  0
115201  1  0  0  0  0
116202  1  0  0  0  0
116203  1  0  0  0  0
117204  1  0  0  0  0
117205  1  0  0  0  0
118130  2  0  0  0  0
118206  1  0  0  0  0
119131  2  0  0  0  0
119207  1  0  0  0  0
120132  2  0  0  0  0
120208  1  0  0  0  0
121133  2  0  0  0  0
121209  1  0  0  0  0
126135  2  0  0  0  0
126210  1  0  0  0  0
127137  2  0  0  0  0
127211  1  0  0  0  0
130138  1  0  0  0  0
130212  1  0  0  0  0
131139  1  0  0  0  0
131213  1  0  0  0  0
132140  1  0  0  0  0
132214  1  0  0  0  0
133141  1  0  0  0  0
133215  1  0  0  0  0
134146  2  0  0  0  0
134217  1  0  0  0  0
135142  1  0  0  0  0
135218  1  0  0  0  0
137144  1  0  0  0  0
137219  1  0  0  0  0
143148  2  0  0  0  0
143221  1  0  0  0  0
146147  1  0  0  0  0
146222  1  0  0  0  0
148149  1  0  0  0  0
148223  1  0  0  0  0
M  CHG  7   1  -1   3  -1   5  -1   7  -1   9  -1  11  -1  13  -1
M  END
> <PUBCHEM_COMPOUND_CID>
16197466

> <PUBCHEM_COMPOUND_CANONICALIZED>
1

> <PUBCHEM_CACTVS_COMPLEXITY>
6110

> <PUBCHEM_CACTVS_HBOND_ACCEPTOR>
47

> <PUBCHEM_CACTVS_HBOND_DONOR>
10

> <PUBCHEM_CACTVS_ROTATABLE_BOND>
44

> <PUBCHEM_CACTVS_SUBSKEYS>
AAADcfB//gP4AAAAAAAAAAAAAAAAASJEiRIgQIECAAAAAAAAAAAAHgAQCCAACBThgAYBAANABxCoACJmdACAAAEAAgAIAAAYABCBEAIAgAAOQAAHFgIDAACwMAIAAAAAAAAAAAAAAAAAAAAAAAAAAAAAAA==

> <PUBCHEM_IUPAC_OPENEYE_NAME>
4-amino-1-[5-[[[5-(4-amino-2-oxo-pyrimidin-1-yl)-2-[[[5-(4-amino-2-oxo-pyrimidin-1-yl)-2-[[[5-(4-amino-2-oxo-pyrimidin-1-yl)-2-[[[5-(4-amino-2-oxo-pyrimidin-1-yl)-2-[[[5-(4-amino-2-oxo-pyrimidin-1-yl)-2-[[[5-(4-amino-2-oxo-pyrimidin-1-yl)-2-[[[5-(4-amino-2-oxo-pyrimidin-1-yl)-2-(hydroxymethyl)tetrahydrofuran-3-yl]oxy-sulfido-phosphinothioyl]oxymethyl]tetrahydrofuran-3-yl]oxy-sulfido-phosphinothioyl]oxymethyl]tetrahydrofuran-3-yl]oxy-sulfido-phosphinothioyl]oxymethyl]tetrahydrofuran-3-yl]oxy-sulfido-phosphinothioyl]oxymethyl]tetrahydrofuran-3-yl]oxy-sulfido-phosphinothioyl]oxymethyl]tetrahydrofuran-3-yl]oxy-sulfido-phosphinothioyl]oxymethyl]tetrahydrofuran-3-yl]oxy-sulfido-phosphinothioyl]oxymethyl]-4-hydroxy-tetrahydrofuran-2-yl]pyrimidin-2-one

> <PUBCHEM_IUPAC_CAS_NAME>
4-amino-1-[5-[[[5-(4-amino-2-oxo-1-pyrimidinyl)-2-[[[5-(4-amino-2-oxo-1-pyrimidinyl)-2-[[[5-(4-amino-2-oxo-1-pyrimidinyl)-2-[[[5-(4-amino-2-oxo-1-pyrimidinyl)-2-[[[5-(4-amino-2-oxo-1-pyrimidinyl)-2-[[[5-(4-amino-2-oxo-1-pyrimidinyl)-2-[[[5-(4-amino-2-oxo-1-pyrimidinyl)-2-(hydroxymethyl)-3-oxolanyl]oxy-sulfidophosphinothioyl]oxymethyl]-3-oxolanyl]oxy-sulfidophosphinothioyl]oxymethyl]-3-oxolanyl]oxy-sulfidophosphinothioyl]oxymethyl]-3-oxolanyl]oxy-sulfidophosphinothioyl]oxymethyl]-3-oxolanyl]oxy-sulfidophosphinothioyl]oxymethyl]-3-oxolanyl]oxy-sulfidophosphinothioyl]oxymethyl]-3-oxolanyl]oxy-sulfidophosphinothioyl]oxymethyl]-4-hydroxy-2-oxolanyl]-2-pyrimidinone

> <PUBCHEM_IUPAC_NAME>
4-amino-1-[5-[[[5-(4-amino-2-oxopyrimidin-1-yl)-2-[[[5-(4-amino-2-oxopyrimidin-1-yl)-2-[[[5-(4-amino-2-oxopyrimidin-1-yl)-2-[[[5-(4-amino-2-oxopyrimidin-1-yl)-2-[[[5-(4-amino-2-oxopyrimidin-1-yl)-2-[[[5-(4-amino-2-oxopyrimidin-1-yl)-2-[[[5-(4-amino-2-oxopyrimidin-1-yl)-2-(hydroxymethyl)oxolan-3-yl]oxy-sulfidophosphinothioyl]oxymethyl]oxolan-3-yl]oxy-sulfidophosphinothioyl]oxymethyl]oxolan-3-yl]oxy-sulfidophosphinothioyl]oxymethyl]oxolan-3-yl]oxy-sulfidophosphinothioyl]oxymethyl]oxolan-3-yl]oxy-sulfidophosphinothioyl]oxymethyl]oxolan-3-yl]oxy-sulfidophosphinothioyl]oxymethyl]oxolan-3-yl]oxy-sulfidophosphinothioyl]oxymethyl]-4-hydroxyoxolan-2-yl]pyrimidin-2-one

> <PUBCHEM_IUPAC_SYSTEMATIC_NAME>
4-azanyl-1-[5-[[[5-(4-azanyl-2-oxidanylidene-pyrimidin-1-yl)-2-[[[5-(4-azanyl-2-oxidanylidene-pyrimidin-1-yl)-2-[[[5-(4-azanyl-2-oxidanylidene-pyrimidin-1-yl)-2-[[[5-(4-azanyl-2-oxidanylidene-pyrimidin-1-yl)-2-[[[5-(4-azanyl-2-oxidanylidene-pyrimidin-1-yl)-2-[[[5-(4-azanyl-2-oxidanylidene-pyrimidin-1-yl)-2-[[[5-(4-azanyl-2-oxidanylidene-pyrimidin-1-yl)-2-(hydroxymethyl)oxolan-3-yl]oxy-sulfanidyl-phosphinothioyl]oxymethyl]oxolan-3-yl]oxy-sulfanidyl-phosphinothioyl]oxymethyl]oxolan-3-yl]oxy-sulfanidyl-phosphinothioyl]oxymethyl]oxolan-3-yl]oxy-sulfanidyl-phosphinothioyl]oxymethyl]oxolan-3-yl]oxy-sulfanidyl-phosphinothioyl]oxymethyl]oxolan-3-yl]oxy-sulfanidyl-phosphinothioyl]oxymethyl]oxolan-3-yl]oxy-sulfanidyl-phosphinothioyl]oxymethyl]-4-oxidanyl-oxolan-2-yl]pyrimidin-2-one

> <PUBCHEM_IUPAC_TRADITIONAL_NAME>
4-amino-1-[5-[[[5-(4-amino-2-keto-pyrimidin-1-yl)-2-[[[5-(4-amino-2-keto-pyrimidin-1-yl)-2-[[[5-(4-amino-2-keto-pyrimidin-1-yl)-2-[[[5-(4-amino-2-keto-pyrimidin-1-yl)-2-[[[5-(4-amino-2-keto-pyrimidin-1-yl)-2-[[[5-(4-amino-2-keto-pyrimidin-1-yl)-2-[[[5-(4-amino-2-keto-pyrimidin-1-yl)-2-methylol-tetrahydrofuran-3-yl]oxy-sulfido-thiophosphoryl]oxymethyl]tetrahydrofuran-3-yl]oxy-sulfido-thiophosphoryl]oxymethyl]tetrahydrofuran-3-yl]oxy-sulfido-thiophosphoryl]oxymethyl]tetrahydrofuran-3-yl]oxy-sulfido-thiophosphoryl]oxymethyl]tetrahydrofuran-3-yl]oxy-sulfido-thiophosphoryl]oxymethyl]tetrahydrofuran-3-yl]oxy-sulfido-thiophosphoryl]oxymethyl]tetrahydrofuran-3-yl]oxy-sulfido-thiophosphoryl]oxymethyl]-4-hydroxy-tetrahydrofuran-2-yl]pyrimidin-2-one

> <PUBCHEM_NIST_INCHI>
InChI=1S/C72H97N24O32P7S14/c73-49-1-9-89(65(99)81-49)57-17-33(98)42(115-57)26-107-129(136,137)123-35-19-59(91-11-3-51(75)83-67(91)101)117-44(35)28-109-131(140,141)125-37-21-61(93-13-5-53(77)85-69(93)103)119-46(37)30-111-133(144,145)127-39-23-63(95-15-7-55(79)87-71(95)105)121-48(39)32-113-135(148,149)128-40-24-64(96-16-8-56(80)88-72(96)106)120-47(40)31-112-134(146,147)126-38-22-62(94-14-6-54(78)86-70(94)104)118-45(38)29-110-132(142,143)124-36-20-60(92-12-4-52(76)84-68(92)102)116-43(36)27-108-130(138,139)122-34-18-58(114-41(34)25-97)90-10-2-50(74)82-66(90)100/h1-16,33-48,57-64,97-98H,17-32H2,(H,136,137)(H,138,139)(H,140,141)(H,142,143)(H,144,145)(H,146,147)(H,148,149)(H2,73,81,99)(H2,74,82,100)(H2,75,83,101)(H2,76,84,102)(H2,77,85,103)(H2,78,86,104)(H2,79,87,105)(H2,80,88,106)/p-7

> <PUBCHEM_NIST_INCHIKEY>
KTFVILQPXBMOJP-UHFFFAOYSA-G

> <PUBCHEM_XLOGP3_AA>
0.5

> <PUBCHEM_EXACT_MASS>
2467.040617

> <PUBCHEM_MOLECULAR_FORMULA>
C72H90N24O32P7S14-7

> <PUBCHEM_MOLECULAR_WEIGHT>
2469.352927

> <PUBCHEM_OPENEYE_CAN_SMILES>
C1C(C(OC1N2C=CC(=NC2=O)N)COP(=S)(OC3CC(OC3COP(=S)(OC4CC(OC4COP(=S)(OC5CC(OC5COP(=S)(OC6CC(OC6COP(=S)(OC7CC(OC7COP(=S)(OC8CC(OC8COP(=S)(OC9CC(OC9CO)N1C=CC(=NC1=O)N)[S-])N1C=CC(=NC1=O)N)[S-])N1C=CC(=NC1=O)N)[S-])N1C=CC(=NC1=O)N)[S-])N1C=CC(=NC1=O)N)[S-])N1C=CC(=NC1=O)N)[S-])N1C=CC(=NC1=O)N)[S-])O

> <PUBCHEM_OPENEYE_ISO_SMILES>
C1C(C(OC1N2C=CC(=NC2=O)N)COP(=S)(OC3CC(OC3COP(=S)(OC4CC(OC4COP(=S)(OC5CC(OC5COP(=S)(OC6CC(OC6COP(=S)(OC7CC(OC7COP(=S)(OC8CC(OC8COP(=S)(OC9CC(OC9CO)N1C=CC(=NC1=O)N)[S-])N1C=CC(=NC1=O)N)[S-])N1C=CC(=NC1=O)N)[S-])N1C=CC(=NC1=O)N)[S-])N1C=CC(=NC1=O)N)[S-])N1C=CC(=NC1=O)N)[S-])N1C=CC(=NC1=O)N)[S-])O

> <PUBCHEM_CACTVS_TPSA>
945

> <PUBCHEM_MONOISOTOPIC_WEIGHT>
2467.040617

> <PUBCHEM_TOTAL_CHARGE>
-7

> <PUBCHEM_HEAVY_ATOM_COUNT>
149

> <PUBCHEM_ATOM_DEF_STEREO_COUNT>
0

> <PUBCHEM_ATOM_UDEF_STEREO_COUNT>
24

> <PUBCHEM_BOND_DEF_STEREO_COUNT>
0

> <PUBCHEM_BOND_UDEF_STEREO_COUNT>
0

> <PUBCHEM_ISOTOPIC_ATOM_COUNT>
0

> <PUBCHEM_COMPONENT_COUNT>
1

> <PUBCHEM_CACTVS_TAUTO_COUNT>
1001

> <PUBCHEM_COORDINATE_TYPE>
1
3

> <PUBCHEM_BONDANNOTATIONS>
109  117  3
112  116  3
118  130  8
119  131  8
120  132  8
121  133  8
126  135  8
127  137  8
130  138  8
131  139  8
132  140  8
133  141  8
134  146  8
135  142  8
137  144  8
143  148  8
146  147  8
148  149  8
78  28  3
79  29  3
80  30  3
81  31  3
89  32  3
96  33  3
108  41  3
113  44  3
54  118  8
54  122  8
91  54  3
55  119  8
55  123  8
92  55  3
56  120  8
56  124  8
94  56  3
57  121  8
57  125  8
95  57  3
58  126  8
58  128  8
99  58  3
101  59  3
59  127  8
59  129  8
111  60  3
60  134  8
60  136  8
115  61  3
61  143  8
61  145  8
62  122  8
62  138  8
63  123  8
63  139  8
64  124  8
64  140  8
65  125  8
65  141  8
66  128  8
66  142  8
67  129  8
67  144  8
68  136  8
68  147  8
73  145  8
73  149  8
82  103  3
83  102  3
84  105  3
85  104  3
93  107  3
97  106  3

$$$$

