44135672
  -OEChem-10021005212D

 64 66  0     1  0  0  0  0  0999 V2000
    8.5795   -1.8114    0.0000 P   0  0  3  0  0  0  0  0  0  0  0  0
    6.3415    2.4584    0.0000 P   0  0  3  0  0  0  0  0  0  0  0  0
    9.2605    1.4500    0.0000 O   0  0  0  0  0  0  0  0  0  0  0  0
    8.1728   -0.8978    0.0000 O   0  0  0  0  0  0  0  0  0  0  0  0
    4.3735    5.1469    0.0000 O   0  0  0  0  0  0  0  0  0  0  0  0
    9.7833   -4.6554    0.0000 O   0  0  0  0  0  0  0  0  0  0  0  0
    5.3904    2.7675    0.0000 O   0  0  0  0  0  0  0  0  0  0  0  0
    7.2926    2.1494    0.0000 O   0  0  0  0  0  0  0  0  0  0  0  0
    8.9862   -2.7249    0.0000 O   0  0  0  0  0  0  0  0  0  0  0  0
    7.3107   -5.4180    0.0000 O   0  0  0  0  0  0  0  0  0  0  0  0
    2.5369    4.1523    0.0000 O   0  0  0  0  0  0  0  0  0  0  0  0
    7.6660   -2.2181    0.0000 O   0  0  0  0  0  0  0  0  0  0  0  0
    6.6505    3.4095    0.0000 O   0  0  0  0  0  0  0  0  0  0  0  0
    9.4930   -1.4046    0.0000 O   0  0  0  0  0  0  0  0  0  0  0  0
    6.0325    1.5074    0.0000 O   0  0  0  0  0  0  0  0  0  0  0  0
   11.0206    1.1713    0.0000 N   0  0  0  0  0  0  0  0  0  0  0  0
    5.7584    6.2683    0.0000 N   0  0  0  0  0  0  0  0  0  0  0  0
   10.7539   -6.1499    0.0000 N   0  0  0  0  0  0  0  0  0  0  0  0
    8.7605   -0.0888    0.0000 C   0  0  3  0  0  0  0  0  0  0  0  0
    8.4515    0.8623    0.0000 C   0  0  3  0  0  0  0  0  0  0  0  0
    9.7605   -0.0888    0.0000 C   0  0  0  0  0  0  0  0  0  0  0  0
    5.1825    3.7456    0.0000 C   0  0  3  0  0  0  0  0  0  0  0  0
   10.0696    0.8623    0.0000 C   0  0  3  0  0  0  0  0  0  0  0  0
    4.2690    4.1523    0.0000 C   0  0  3  0  0  0  0  0  0  0  0  0
    5.8517    4.4887    0.0000 C   0  0  0  0  0  0  0  0  0  0  0  0
    8.8052   -4.4475    0.0000 C   0  0  3  0  0  0  0  0  0  0  0  0
    7.5005    1.1713    0.0000 C   0  0  0  0  0  0  0  0  0  0  0  0
    8.3052   -5.3135    0.0000 C   0  0  3  0  0  0  0  0  0  0  0  0
    5.3517    5.3548    0.0000 C   0  0  3  0  0  0  0  0  0  0  0  0
    8.9743   -6.0566    0.0000 C   0  0  0  0  0  0  0  0  0  0  0  0
    9.8879   -5.6499    0.0000 C   0  0  3  0  0  0  0  0  0  0  0  0
    8.3984   -3.5339    0.0000 C   0  0  0  0  0  0  0  0  0  0  0  0
    3.4030    3.6523    0.0000 C   0  0  0  0  0  0  0  0  0  0  0  0
    8.1482    0.0082    0.0000 H   0  0  0  0  0  0  0  0  0  0  0  0
    8.3545    1.4746    0.0000 H   0  0  0  0  0  0  0  0  0  0  0  0
    9.6957   -0.7054    0.0000 H   0  0  0  0  0  0  0  0  0  0  0  0
   10.3670   -0.2177    0.0000 H   0  0  0  0  0  0  0  0  0  0  0  0
    4.7007    3.3554    0.0000 H   0  0  0  0  0  0  0  0  0  0  0  0
   10.1665    1.4746    0.0000 H   0  0  0  0  0  0  0  0  0  0  0  0
    3.7490    4.4900    0.0000 H   0  0  0  0  0  0  0  0  0  0  0  0
    6.2665    4.0280    0.0000 H   0  0  0  0  0  0  0  0  0  0  0  0
    6.3532    4.8532    0.0000 H   0  0  0  0  0  0  0  0  0  0  0  0
    9.1954   -3.9656    0.0000 H   0  0  0  0  0  0  0  0  0  0  0  0
    7.9675   -4.7935    0.0000 H   0  0  0  0  0  0  0  0  0  0  0  0
    6.8808    1.1496    0.0000 H   0  0  0  0  0  0  0  0  0  0  0  0
    7.4142    0.5573    0.0000 H   0  0  0  0  0  0  0  0  0  0  0  0
    4.9615    5.8366    0.0000 H   0  0  0  0  0  0  0  0  0  0  0  0
    8.4727   -6.4211    0.0000 H   0  0  0  0  0  0  0  0  0  0  0  0
    9.2843   -6.5936    0.0000 H   0  0  0  0  0  0  0  0  0  0  0  0
    9.8554   -6.2691    0.0000 H   0  0  0  0  0  0  0  0  0  0  0  0
    7.9678   -3.0879    0.0000 H   0  0  0  0  0  0  0  0  0  0  0  0
    7.8844   -3.8806    0.0000 H   0  0  0  0  0  0  0  0  0  0  0  0
    3.0044    3.1774    0.0000 H   0  0  0  0  0  0  0  0  0  0  0  0
    3.8015    3.1774    0.0000 H   0  0  0  0  0  0  0  0  0  0  0  0
   11.1495    1.7777    0.0000 H   0  0  0  0  0  0  0  0  0  0  0  0
   11.4814    0.7564    0.0000 H   0  0  0  0  0  0  0  0  0  0  0  0
    5.3940    6.7699    0.0000 H   0  0  0  0  0  0  0  0  0  0  0  0
    6.3750    6.3331    0.0000 H   0  0  0  0  0  0  0  0  0  0  0  0
   10.7539   -6.7699    0.0000 H   0  0  0  0  0  0  0  0  0  0  0  0
   11.2908   -5.8399    0.0000 H   0  0  0  0  0  0  0  0  0  0  0  0
    7.0585   -5.9844    0.0000 H   0  0  0  0  0  0  0  0  0  0  0  0
    2.0000    3.8423    0.0000 H   0  0  0  0  0  0  0  0  0  0  0  0
    7.1644   -1.8537    0.0000 H   0  0  0  0  0  0  0  0  0  0  0  0
    7.2570    3.5384    0.0000 H   0  0  0  0  0  0  0  0  0  0  0  0
  1  4  1  0  0  0  0
  1  9  1  0  0  0  0
  1 12  1  0  0  0  0
  1 14  2  0  0  0  0
  2  7  1  0  0  0  0
  2  8  1  0  0  0  0
  2 13  1  0  0  0  0
  2 15  2  0  0  0  0
  3 20  1  0  0  0  0
  3 23  1  0  0  0  0
  4 19  1  0  0  0  0
  5 24  1  0  0  0  0
  5 29  1  0  0  0  0
  6 26  1  0  0  0  0
  6 31  1  0  0  0  0
  7 22  1  0  0  0  0
  8 27  1  0  0  0  0
  9 32  1  0  0  0  0
 10 28  1  0  0  0  0
 10 61  1  0  0  0  0
 11 33  1  0  0  0  0
 11 62  1  0  0  0  0
 12 63  1  0  0  0  0
 13 64  1  0  0  0  0
 16 23  1  0  0  0  0
 16 55  1  0  0  0  0
 16 56  1  0  0  0  0
 17 29  1  0  0  0  0
 17 57  1  0  0  0  0
 17 58  1  0  0  0  0
 18 31  1  0  0  0  0
 18 59  1  0  0  0  0
 18 60  1  0  0  0  0
 19 20  1  0  0  0  0
 19 21  1  0  0  0  0
 19 34  1  0  0  0  0
 20 27  1  0  0  0  0
 20 35  1  0  0  0  0
 21 23  1  0  0  0  0
 21 36  1  0  0  0  0
 21 37  1  0  0  0  0
 22 24  1  0  0  0  0
 22 25  1  0  0  0  0
 22 38  1  0  0  0  0
 23 39  1  0  0  0  0
 24 33  1  0  0  0  0
 24 40  1  0  0  0  0
 25 29  1  0  0  0  0
 25 41  1  0  0  0  0
 25 42  1  0  0  0  0
 26 28  1  0  0  0  0
 26 32  1  0  0  0  0
 26 43  1  0  0  0  0
 27 45  1  0  0  0  0
 27 46  1  0  0  0  0
 28 30  1  0  0  0  0
 28 44  1  0  0  0  0
 29 47  1  0  0  0  0
 30 31  1  0  0  0  0
 30 48  1  0  0  0  0
 30 49  1  0  0  0  0
 31 50  1  0  0  0  0
 32 51  1  0  0  0  0
 32 52  1  0  0  0  0
 33 53  1  0  0  0  0
 33 54  1  0  0  0  0
M  END
> <PUBCHEM_COMPOUND_CID>
44135672

> <PUBCHEM_COMPOUND_CANONICALIZED>
1

> <PUBCHEM_CACTVS_COMPLEXITY>
750

> <PUBCHEM_CACTVS_HBOND_ACCEPTOR>
16

> <PUBCHEM_CACTVS_HBOND_DONOR>
7

> <PUBCHEM_CACTVS_ROTATABLE_BOND>
11

> <PUBCHEM_CACTVS_SUBSKEYS>
AAADceBzPAMAAAAAAAAAAAAAAAAAASJEgAAAAAAAAAAAAAAAAAAAHgAQCCAACBThgAYAAABABxAAQAAAAIAAAAAAAAAAAIAAAAEBEAIAgAAKQAAHEAADAACwMAAAAAAAAAAAAAAAAAAAAAAAAAAAAAAAAA==

> <PUBCHEM_IUPAC_OPENEYE_NAME>
[5-amino-2-[[[5-amino-2-(hydroxymethyl)tetrahydrofuran-3-yl]oxy-hydroxy-phosphoryl]oxymethyl]tetrahydrofuran-3-yl] (5-amino-3-hydroxy-tetrahydrofuran-2-yl)methyl hydrogen phosphate

> <PUBCHEM_IUPAC_CAS_NAME>
[5-amino-2-[[[5-amino-2-(hydroxymethyl)-3-oxolanyl]oxy-hydroxyphosphoryl]oxymethyl]-3-oxolanyl] (5-amino-3-hydroxy-2-oxolanyl)methyl hydrogen phosphate

> <PUBCHEM_IUPAC_NAME>
[5-amino-2-[[[5-amino-2-(hydroxymethyl)oxolan-3-yl]oxy-hydroxyphosphoryl]oxymethyl]oxolan-3-yl] (5-amino-3-hydroxyoxolan-2-yl)methyl hydrogen phosphate

> <PUBCHEM_IUPAC_SYSTEMATIC_NAME>
[5-azanyl-2-[[[5-azanyl-2-(hydroxymethyl)oxolan-3-yl]oxy-oxidanyl-phosphoryl]oxymethyl]oxolan-3-yl] (5-azanyl-3-oxidanyl-oxolan-2-yl)methyl hydrogen phosphate

> <PUBCHEM_IUPAC_TRADITIONAL_NAME>
[5-amino-3-[(5-amino-3-hydroxy-tetrahydrofuran-2-yl)methoxy-hydroxy-phosphoryl]oxy-tetrahydrofuran-2-yl]methyl (5-amino-2-methylol-tetrahydrofuran-3-yl) hydrogen phosphate

> <PUBCHEM_NIST_INCHI>
InChI=1S/C15H31N3O13P2/c16-13-1-7(20)11(28-13)5-25-32(21,22)31-9-3-15(18)29-12(9)6-26-33(23,24)30-8-2-14(17)27-10(8)4-19/h7-15,19-20H,1-6,16-18H2,(H,21,22)(H,23,24)

> <PUBCHEM_NIST_INCHIKEY>
AWBASQCACWFTGD-UHFFFAOYSA-N

> <PUBCHEM_XLOGP3_AA>
-10.2

> <PUBCHEM_EXACT_MASS>
523.133211

> <PUBCHEM_MOLECULAR_FORMULA>
C15H31N3O13P2

> <PUBCHEM_MOLECULAR_WEIGHT>
523.366462

> <PUBCHEM_OPENEYE_CAN_SMILES>
C1C(C(OC1N)COP(=O)(O)OC2CC(OC2COP(=O)(O)OC3CC(OC3CO)N)N)O

> <PUBCHEM_OPENEYE_ISO_SMILES>
C1C(C(OC1N)COP(=O)(O)OC2CC(OC2COP(=O)(O)OC3CC(OC3CO)N)N)O

> <PUBCHEM_CACTVS_TPSA>
258

> <PUBCHEM_MONOISOTOPIC_WEIGHT>
523.133211

> <PUBCHEM_TOTAL_CHARGE>
0

> <PUBCHEM_HEAVY_ATOM_COUNT>
33

> <PUBCHEM_ATOM_DEF_STEREO_COUNT>
0

> <PUBCHEM_ATOM_UDEF_STEREO_COUNT>
9

> <PUBCHEM_BOND_DEF_STEREO_COUNT>
0

> <PUBCHEM_BOND_UDEF_STEREO_COUNT>
0

> <PUBCHEM_ISOTOPIC_ATOM_COUNT>
0

> <PUBCHEM_COMPONENT_COUNT>
1

> <PUBCHEM_CACTVS_TAUTO_COUNT>
1

> <PUBCHEM_COORDINATE_TYPE>
1
5
255

> <PUBCHEM_BONDANNOTATIONS>
28  10  3
23  16  3
29  17  3
31  18  3
20  27  3
24  33  3
26  32  3
19  4  3
22  7  3

$$$$

