45278411
  -OEChem-10021005312D

189219  0     1  0  0  0  0  0999 V2000
    9.6763   -2.6786    0.0000 F   0  0  0  0  0  0  0  0  0  0  0  0
    7.4205    2.7904    0.0000 F   0  0  0  0  0  0  0  0  0  0  0  0
   12.6487    2.4989    0.0000 F   0  0  0  0  0  0  0  0  0  0  0  0
    8.3002   -2.2240    0.0000 F   0  0  0  0  0  0  0  0  0  0  0  0
   11.0868   -2.0472    0.0000 F   0  0  0  0  0  0  0  0  0  0  0  0
    9.7730    2.9485    0.0000 F   0  0  0  0  0  0  0  0  0  0  0  0
    6.9369    0.5245    0.0000 F   0  0  0  0  0  0  0  0  0  0  0  0
   12.8127    0.9438    0.0000 F   0  0  0  0  0  0  0  0  0  0  0  0
   11.5929    3.4603    0.0000 F   0  0  0  0  0  0  0  0  0  0  0  0
    7.0482   -1.9554    0.0000 F   0  0  0  0  0  0  0  0  0  0  0  0
   11.8249   -1.4117    0.0000 F   0  0  0  0  0  0  0  0  0  0  0  0
    9.3870    4.4029    0.0000 F   0  0  0  0  0  0  0  0  0  0  0  0
    6.3980   -0.7920    0.0000 F   0  0  0  0  0  0  0  0  0  0  0  0
   12.6208   -0.0300    0.0000 F   0  0  0  0  0  0  0  0  0  0  0  0
   10.7069    4.4204    0.0000 F   0  0  0  0  0  0  0  0  0  0  0  0
    7.5196   -3.8577    0.0000 O   0  0  0  0  0  0  0  0  0  0  0  0
    8.2342   -4.3992    0.0000 O   0  0  0  0  0  0  0  0  0  0  0  0
    5.3357    4.3583    0.0000 O   0  0  0  0  0  0  0  0  0  0  0  0
    4.8154    4.0564    0.0000 O   0  0  0  0  0  0  0  0  0  0  0  0
   13.9358    3.8987    0.0000 O   0  0  0  0  0  0  0  0  0  0  0  0
   14.0601    3.0108    0.0000 O   0  0  0  0  0  0  0  0  0  0  0  0
    9.1239   -4.5108    0.0000 O   0  0  0  0  0  0  0  0  0  0  0  0
    4.1996    2.7284    0.0000 O   0  0  0  0  0  0  0  0  0  0  0  0
   12.5531    4.9419    0.0000 O   0  0  0  0  0  0  0  0  0  0  0  0
    9.9500   -4.1627    0.0000 O   0  0  0  0  0  0  0  0  0  0  0  0
    6.9705   -2.5544    0.0000 O   0  0  0  0  0  0  0  0  0  0  0  0
    4.2265    2.4276    0.0000 O   0  0  0  0  0  0  0  0  0  0  0  0
    6.7443    4.4846    0.0000 O   0  0  0  0  0  0  0  0  0  0  0  0
   13.3842    4.6055    0.0000 O   0  0  0  0  0  0  0  0  0  0  0  0
   13.7237    2.1797    0.0000 O   0  0  0  0  0  0  0  0  0  0  0  0
   10.4915   -3.4481    0.0000 O   0  0  0  0  0  0  0  0  0  0  0  0
    4.5686    1.3630    0.0000 O   0  0  0  0  0  0  0  0  0  0  0  0
   11.5607    5.0643    0.0000 O   0  0  0  0  0  0  0  0  0  0  0  0
    6.9279   -7.6076    0.0000 N   0  0  0  0  0  0  0  0  0  0  0  0
    4.7841   -5.9831    0.0000 N   0  0  0  0  0  0  0  0  0  0  0  0
    2.5831    6.7053    0.0000 N   0  0  0  0  0  0  0  0  0  0  0  0
    4.1440    7.6109    0.0000 N   0  0  0  0  0  0  0  0  0  0  0  0
   17.4981    2.5866    0.0000 N   0  0  0  0  0  0  0  0  0  0  0  0
   17.1253    5.2504    0.0000 N   0  0  0  0  0  0  0  0  0  0  0  0
    9.4025   -1.7168    0.0000 C   0  0  0  0  0  0  0  0  0  0  0  0
    7.7998    1.8651    0.0000 C   0  0  0  0  0  0  0  0  0  0  0  0
   11.6825    2.2411    0.0000 C   0  0  0  0  0  0  0  0  0  0  0  0
    8.8202   -1.3699    0.0000 C   0  0  3  0  0  0  0  0  0  0  0  0
   10.5526   -1.2019    0.0000 C   0  0  3  0  0  0  0  0  0  0  0  0
    8.9498    2.3807    0.0000 C   0  0  3  0  0  0  0  0  0  0  0  0
    7.9330    0.6122    0.0000 C   0  0  3  0  0  0  0  0  0  0  0  0
   11.8137    0.9877    0.0000 C   0  0  3  0  0  0  0  0  0  0  0  0
   11.1014    2.5894    0.0000 C   0  0  3  0  0  0  0  0  0  0  0  0
    7.5807   -1.1089    0.0000 C   0  0  3  0  0  0  0  0  0  0  0  0
   11.0557   -0.7727    0.0000 C   0  0  3  0  0  0  0  0  0  0  0  0
    9.1789    3.4248    0.0000 C   0  0  3  0  0  0  0  0  0  0  0  0
    7.1384   -0.1198    0.0000 C   0  0  3  0  0  0  0  0  0  0  0  0
   11.6838    0.3195    0.0000 C   0  0  3  0  0  0  0  0  0  0  0  0
   10.2530    3.5294    0.0000 C   0  0  3  0  0  0  0  0  0  0  0  0
    8.7508   -1.8044    0.0000 C   0  0  0  0  0  0  0  0  0  0  0  0
    6.8720    2.3920    0.0000 C   0  0  0  0  0  0  0  0  0  0  0  0
   11.4203    2.8326    0.0000 C   0  0  0  0  0  0  0  0  0  0  0  0
    9.6106   -0.6410    0.0000 C   0  0  0  0  0  0  0  0  0  0  0  0
   10.6817   -0.5368    0.0000 C   0  0  0  0  0  0  0  0  0  0  0  0
    9.7952    1.4463    0.0000 C   0  0  0  0  0  0  0  0  0  0  0  0
    9.1661    0.3533    0.0000 C   0  0  0  0  0  0  0  0  0  0  0  0
   11.3145    0.5605    0.0000 C   0  0  0  0  0  0  0  0  0  0  0  0
   10.8735    1.5508    0.0000 C   0  0  0  0  0  0  0  0  0  0  0  0
    6.9307   -1.1948    0.0000 C   0  0  0  0  0  0  0  0  0  0  0  0
   10.4081   -0.8601    0.0000 C   0  0  0  0  0  0  0  0  0  0  0  0
    8.2559    3.9486    0.0000 C   0  0  0  0  0  0  0  0  0  0  0  0
    6.2148    0.4053    0.0000 C   0  0  0  0  0  0  0  0  0  0  0  0
   11.4249    0.9078    0.0000 C   0  0  0  0  0  0  0  0  0  0  0  0
    9.9915    4.1183    0.0000 C   0  0  0  0  0  0  0  0  0  0  0  0
    7.5175   -1.5431    0.0000 C   0  0  0  0  0  0  0  0  0  0  0  0
    9.2526   -1.3772    0.0000 C   0  0  0  0  0  0  0  0  0  0  0  0
    7.0998    3.4314    0.0000 C   0  0  0  0  0  0  0  0  0  0  0  0
    6.0810    1.6644    0.0000 C   0  0  0  0  0  0  0  0  0  0  0  0
   11.2924    2.1669    0.0000 C   0  0  0  0  0  0  0  0  0  0  0  0
   10.5766    3.7687    0.0000 C   0  0  0  0  0  0  0  0  0  0  0  0
    6.0864   -0.2589    0.0000 C   0  0  0  0  0  0  0  0  0  0  0  0
   10.6373    0.1793    0.0000 C   0  0  0  0  0  0  0  0  0  0  0  0
    8.7576    4.3774    0.0000 C   0  0  0  0  0  0  0  0  0  0  0  0
    7.2582   -0.9546    0.0000 C   0  0  0  0  0  0  0  0  0  0  0  0
    8.3306   -0.8517    0.0000 C   0  0  0  0  0  0  0  0  0  0  0  0
    6.4488    3.3459    0.0000 C   0  0  0  0  0  0  0  0  0  0  0  0
    5.8190    2.2538    0.0000 C   0  0  0  0  0  0  0  0  0  0  0  0
   10.3706    2.6915    0.0000 C   0  0  0  0  0  0  0  0  0  0  0  0
    9.9282    3.6813    0.0000 C   0  0  0  0  0  0  0  0  0  0  0  0
    8.8874   -2.7950    0.0000 C   0  0  0  0  0  0  0  0  0  0  0  0
    5.9316    2.7320    0.0000 C   0  0  0  0  0  0  0  0  0  0  0  0
   12.3411    3.2228    0.0000 C   0  0  0  0  0  0  0  0  0  0  0  0
    5.8252    0.3332    0.0000 C   0  0  0  0  0  0  0  0  0  0  0  0
    9.7109    0.7060    0.0000 C   0  0  0  0  0  0  0  0  0  0  0  0
    8.1054    4.2898    0.0000 C   0  0  0  0  0  0  0  0  0  0  0  0
    6.4107   -0.0144    0.0000 C   0  0  0  0  0  0  0  0  0  0  0  0
    8.5597    0.1921    0.0000 C   0  0  0  0  0  0  0  0  0  0  0  0
    6.9540    3.7754    0.0000 C   0  0  0  0  0  0  0  0  0  0  0  0
    5.6923    1.5863    0.0000 C   0  0  0  0  0  0  0  0  0  0  0  0
    9.5779    1.9595    0.0000 C   0  0  0  0  0  0  0  0  0  0  0  0
    8.6895    3.9424    0.0000 C   0  0  0  0  0  0  0  0  0  0  0  0
    6.6392    1.0246    0.0000 C   0  0  0  0  0  0  0  0  0  0  0  0
    7.7159    1.1282    0.0000 C   0  0  0  0  0  0  0  0  0  0  0  0
    6.8277    3.1108    0.0000 C   0  0  0  0  0  0  0  0  0  0  0  0
    6.1952    2.0137    0.0000 C   0  0  0  0  0  0  0  0  0  0  0  0
    8.3454    2.2201    0.0000 C   0  0  0  0  0  0  0  0  0  0  0  0
    7.9004    3.2138    0.0000 C   0  0  0  0  0  0  0  0  0  0  0  0
    9.0239   -3.7856    0.0000 C   0  0  0  0  0  0  0  0  0  0  0  0
    7.8967   -2.9315    0.0000 C   0  0  0  0  0  0  0  0  0  0  0  0
    4.9912    3.0720    0.0000 C   0  0  0  0  0  0  0  0  0  0  0  0
    6.1032    3.7172    0.0000 C   0  0  0  0  0  0  0  0  0  0  0  0
   13.2618    3.6130    0.0000 C   0  0  0  0  0  0  0  0  0  0  0  0
   13.3335    3.1004    0.0000 C   0  0  0  0  0  0  0  0  0  0  0  0
    9.5009   -3.5847    0.0000 C   0  0  0  0  0  0  0  0  0  0  0  0
    5.0667    2.2301    0.0000 C   0  0  0  0  0  0  0  0  0  0  0  0
   11.9509    4.1436    0.0000 C   0  0  0  0  0  0  0  0  0  0  0  0
    6.5289   -3.9942    0.0000 C   0  0  0  0  0  0  0  0  0  0  0  0
    8.3708   -5.3898    0.0000 C   0  0  0  0  0  0  0  0  0  0  0  0
    5.5073    5.3435    0.0000 C   0  0  0  0  0  0  0  0  0  0  0  0
    3.8750    4.3964    0.0000 C   0  0  0  0  0  0  0  0  0  0  0  0
   14.9283    3.7763    0.0000 C   0  0  0  0  0  0  0  0  0  0  0  0
   14.9808    3.4010    0.0000 C   0  0  0  0  0  0  0  0  0  0  0  0
    9.7373   -5.3005    0.0000 C   0  0  0  0  0  0  0  0  0  0  0  0
    3.3346    2.2264    0.0000 C   0  0  0  0  0  0  0  0  0  0  0  0
   12.1629    5.8626    0.0000 C   0  0  0  0  0  0  0  0  0  0  0  0
    7.5811   -6.0034    0.0000 C   0  0  0  0  0  0  0  0  0  0  0  0
    6.1518   -4.9204    0.0000 C   0  0  0  0  0  0  0  0  0  0  0  0
    3.6992    5.3808    0.0000 C   0  0  0  0  0  0  0  0  0  0  0  0
    4.7398    5.9846    0.0000 C   0  0  0  0  0  0  0  0  0  0  0  0
   15.7791    2.7987    0.0000 C   0  0  0  0  0  0  0  0  0  0  0  0
   15.5306    4.5746    0.0000 C   0  0  0  0  0  0  0  0  0  0  0  0
    7.7176   -6.9940    0.0000 C   0  0  0  0  0  0  0  0  0  0  0  0
    5.1612   -5.0569    0.0000 C   0  0  0  0  0  0  0  0  0  0  0  0
    2.7588    5.7209    0.0000 C   0  0  0  0  0  0  0  0  0  0  0  0
    4.9114    6.9698    0.0000 C   0  0  0  0  0  0  0  0  0  0  0  0
   16.6998    3.1889    0.0000 C   0  0  0  0  0  0  0  0  0  0  0  0
   16.5230    4.4521    0.0000 C   0  0  0  0  0  0  0  0  0  0  0  0
    8.6604   -5.9380    0.0000 H   0  0  0  0  0  0  0  0  0  0  0  0
    8.9609   -5.1998    0.0000 H   0  0  0  0  0  0  0  0  0  0  0  0
    6.5522   -3.3746    0.0000 H   0  0  0  0  0  0  0  0  0  0  0  0
    5.9228   -3.8636    0.0000 H   0  0  0  0  0  0  0  0  0  0  0  0
    6.0903    5.1327    0.0000 H   0  0  0  0  0  0  0  0  0  0  0  0
    5.8161    5.8811    0.0000 H   0  0  0  0  0  0  0  0  0  0  0  0
    3.2550    4.3951    0.0000 H   0  0  0  0  0  0  0  0  0  0  0  0
    3.7687    3.7856    0.0000 H   0  0  0  0  0  0  0  0  0  0  0  0
   15.4345    3.8236    0.0000 H   0  0  0  0  0  0  0  0  0  0  0  0
   14.6434    3.9212    0.0000 H   0  0  0  0  0  0  0  0  0  0  0  0
   14.7467    3.1835    0.0000 H   0  0  0  0  0  0  0  0  0  0  0  0
   15.4805    3.4945    0.0000 H   0  0  0  0  0  0  0  0  0  0  0  0
    9.2477   -5.6809    0.0000 H   0  0  0  0  0  0  0  0  0  0  0  0
   10.1177   -5.7901    0.0000 H   0  0  0  0  0  0  0  0  0  0  0  0
   10.2269   -4.9201    0.0000 H   0  0  0  0  0  0  0  0  0  0  0  0
    3.0234    2.7627    0.0000 H   0  0  0  0  0  0  0  0  0  0  0  0
    2.7984    1.9153    0.0000 H   0  0  0  0  0  0  0  0  0  0  0  0
    3.6458    1.6902    0.0000 H   0  0  0  0  0  0  0  0  0  0  0  0
   12.7338    6.1045    0.0000 H   0  0  0  0  0  0  0  0  0  0  0  0
   11.9210    6.4334    0.0000 H   0  0  0  0  0  0  0  0  0  0  0  0
   11.5921    5.6207    0.0000 H   0  0  0  0  0  0  0  0  0  0  0  0
    7.2915   -5.4552    0.0000 H   0  0  0  0  0  0  0  0  0  0  0  0
    6.9909   -6.1934    0.0000 H   0  0  0  0  0  0  0  0  0  0  0  0
    6.1286   -5.5399    0.0000 H   0  0  0  0  0  0  0  0  0  0  0  0
    6.7580   -5.0509    0.0000 H   0  0  0  0  0  0  0  0  0  0  0  0
    4.3192    5.3822    0.0000 H   0  0  0  0  0  0  0  0  0  0  0  0
    3.8056    5.9917    0.0000 H   0  0  0  0  0  0  0  0  0  0  0  0
    4.1568    6.1954    0.0000 H   0  0  0  0  0  0  0  0  0  0  0  0
    4.4310    5.4470    0.0000 H   0  0  0  0  0  0  0  0  0  0  0  0
   15.3254    2.3761    0.0000 H   0  0  0  0  0  0  0  0  0  0  0  0
   15.7122    5.1674    0.0000 H   0  0  0  0  0  0  0  0  0  0  0  0
   14.9783    4.8564    0.0000 H   0  0  0  0  0  0  0  0  0  0  0  0
   16.1165    2.2786    0.0000 H   0  0  0  0  0  0  0  0  0  0  0  0
    8.0072   -7.5422    0.0000 H   0  0  0  0  0  0  0  0  0  0  0  0
    8.3078   -6.8040    0.0000 H   0  0  0  0  0  0  0  0  0  0  0  0
    5.1845   -4.4373    0.0000 H   0  0  0  0  0  0  0  0  0  0  0  0
    4.5551   -4.9263    0.0000 H   0  0  0  0  0  0  0  0  0  0  0  0
    2.1388    5.7195    0.0000 H   0  0  0  0  0  0  0  0  0  0  0  0
    2.6525    5.1100    0.0000 H   0  0  0  0  0  0  0  0  0  0  0  0
    5.4944    6.7590    0.0000 H   0  0  0  0  0  0  0  0  0  0  0  0
    5.2202    7.5074    0.0000 H   0  0  0  0  0  0  0  0  0  0  0  0
   17.1535    3.6115    0.0000 H   0  0  0  0  0  0  0  0  0  0  0  0
   16.3624    3.7091    0.0000 H   0  0  0  0  0  0  0  0  0  0  0  0
   16.3414    3.8593    0.0000 H   0  0  0  0  0  0  0  0  0  0  0  0
   17.0753    4.1703    0.0000 H   0  0  0  0  0  0  0  0  0  0  0  0
    4.1699   -6.0677    0.0000 H   0  0  0  0  0  0  0  0  0  0  0  0
    5.1645   -6.4727    0.0000 H   0  0  0  0  0  0  0  0  0  0  0  0
    7.0126   -8.2218    0.0000 H   0  0  0  0  0  0  0  0  0  0  0  0
    6.3537   -7.3738    0.0000 H   0  0  0  0  0  0  0  0  0  0  0  0
    4.2503    8.2218    0.0000 H   0  0  0  0  0  0  0  0  0  0  0  0
    3.5618    7.3976    0.0000 H   0  0  0  0  0  0  0  0  0  0  0  0
    2.0000    6.9161    0.0000 H   0  0  0  0  0  0  0  0  0  0  0  0
    3.0572    7.1048    0.0000 H   0  0  0  0  0  0  0  0  0  0  0  0
   17.7406    5.1745    0.0000 H   0  0  0  0  0  0  0  0  0  0  0  0
   16.8834    5.8213    0.0000 H   0  0  0  0  0  0  0  0  0  0  0  0
   18.0690    2.8286    0.0000 H   0  0  0  0  0  0  0  0  0  0  0  0
   17.4222    1.9713    0.0000 H   0  0  0  0  0  0  0  0  0  0  0  0
  1 40  1  0  0  0  0
  2 41  1  0  0  0  0
  3 42  1  0  0  0  0
  4 43  1  0  0  0  0
  5 44  1  0  0  0  0
  6 45  1  0  0  0  0
  7 46  1  0  0  0  0
  8 47  1  0  0  0  0
  9 48  1  0  0  0  0
 10 49  1  0  0  0  0
 11 50  1  0  0  0  0
 12 51  1  0  0  0  0
 13 52  1  0  0  0  0
 14 53  1  0  0  0  0
 15 54  1  0  0  0  0
 16104  1  0  0  0  0
 16112  1  0  0  0  0
 17103  1  0  0  0  0
 17113  1  0  0  0  0
 18106  1  0  0  0  0
 18114  1  0  0  0  0
 19105  1  0  0  0  0
 19115  1  0  0  0  0
 20108  1  0  0  0  0
 20116  1  0  0  0  0
 21107  1  0  0  0  0
 21117  1  0  0  0  0
 22109  1  0  0  0  0
 22118  1  0  0  0  0
 23110  1  0  0  0  0
 23119  1  0  0  0  0
 24111  1  0  0  0  0
 24120  1  0  0  0  0
 25103  2  0  0  0  0
 26104  2  0  0  0  0
 27105  2  0  0  0  0
 28106  2  0  0  0  0
 29107  2  0  0  0  0
 30108  2  0  0  0  0
 31109  2  0  0  0  0
 32110  2  0  0  0  0
 33111  2  0  0  0  0
 34127  1  0  0  0  0
 34180  1  0  0  0  0
 34181  1  0  0  0  0
 35128  1  0  0  0  0
 35178  1  0  0  0  0
 35179  1  0  0  0  0
 36129  1  0  0  0  0
 36184  1  0  0  0  0
 36185  1  0  0  0  0
 37130  1  0  0  0  0
 37182  1  0  0  0  0
 37183  1  0  0  0  0
 38131  1  0  0  0  0
 38188  1  0  0  0  0
 38189  1  0  0  0  0
 39132  1  0  0  0  0
 39186  1  0  0  0  0
 39187  1  0  0  0  0
 40 43  1  0  0  0  0
 40 44  1  0  0  0  0
 40 55  1  0  0  0  0
 41 45  1  0  0  0  0
 41 46  1  0  0  0  0
 41 56  1  0  0  0  0
 42 47  1  0  0  0  0
 42 48  1  0  0  0  0
 42 57  1  0  0  0  0
 43 49  1  0  0  0  0
 43 58  1  0  0  0  0
 44 50  1  0  0  0  0
 44 59  1  0  0  0  0
 45 51  1  0  0  0  0
 45 60  1  0  0  0  0
 46 52  1  0  0  0  0
 46 61  1  0  0  0  0
 47 53  1  0  0  0  0
 47 62  1  0  0  0  0
 48 54  1  0  0  0  0
 48 63  1  0  0  0  0
 49 52  1  0  0  0  0
 49 64  1  0  0  0  0
 50 53  1  0  0  0  0
 50 65  1  0  0  0  0
 51 54  1  0  0  0  0
 51 66  1  0  0  0  0
 52 67  1  0  0  0  0
 53 68  1  0  0  0  0
 54 69  1  0  0  0  0
 55 70  1  0  0  0  0
 55 71  1  0  0  0  0
 55 85  1  0  0  0  0
 56 72  1  0  0  0  0
 56 73  1  0  0  0  0
 56 86  1  0  0  0  0
 57 74  1  0  0  0  0
 57 75  1  0  0  0  0
 57 87  1  0  0  0  0
 58 59  1  0  0  0  0
 58 61  2  0  0  0  0
 59 62  2  0  0  0  0
 60 61  1  0  0  0  0
 60 63  2  0  0  0  0
 62 63  1  0  0  0  0
 64 70  2  0  0  0  0
 64 76  1  0  0  0  0
 65 71  2  0  0  0  0
 65 77  1  0  0  0  0
 66 72  2  0  0  0  0
 66 78  1  0  0  0  0
 67 73  1  0  0  0  0
 67 76  2  0  0  0  0
 68 74  1  0  0  0  0
 68 77  2  0  0  0  0
 69 75  1  0  0  0  0
 69 78  2  0  0  0  0
 70 79  1  0  0  0  0
 71 80  1  0  0  0  0
 72 81  1  0  0  0  0
 73 82  2  0  0  0  0
 74 83  2  0  0  0  0
 75 84  2  0  0  0  0
 76 88  1  0  0  0  0
 77 89  1  0  0  0  0
 78 90  1  0  0  0  0
 79 80  1  0  0  0  0
 79 91  2  0  0  0  0
 80 92  2  0  0  0  0
 81 82  1  0  0  0  0
 81 93  2  0  0  0  0
 82 94  1  0  0  0  0
 83 84  1  0  0  0  0
 83 95  1  0  0  0  0
 84 96  1  0  0  0  0
 85103  1  0  0  0  0
 85104  1  0  0  0  0
 85109  1  0  0  0  0
 86105  1  0  0  0  0
 86106  1  0  0  0  0
 86110  1  0  0  0  0
 87107  1  0  0  0  0
 87108  1  0  0  0  0
 87111  1  0  0  0  0
 88 91  1  0  0  0  0
 88 94  2  0  0  0  0
 89 92  1  0  0  0  0
 89 95  2  0  0  0  0
 90 93  1  0  0  0  0
 90 96  2  0  0  0  0
 91 97  1  0  0  0  0
 92 98  1  0  0  0  0
 93 99  1  0  0  0  0
 94100  1  0  0  0  0
 95101  1  0  0  0  0
 96102  1  0  0  0  0
 97 98  1  0  0  0  0
 97100  2  0  0  0  0
 98101  2  0  0  0  0
 99100  1  0  0  0  0
 99102  2  0  0  0  0
101102  1  0  0  0  0
112122  1  0  0  0  0
112135  1  0  0  0  0
112136  1  0  0  0  0
113121  1  0  0  0  0
113133  1  0  0  0  0
113134  1  0  0  0  0
114124  1  0  0  0  0
114137  1  0  0  0  0
114138  1  0  0  0  0
115123  1  0  0  0  0
115139  1  0  0  0  0
115140  1  0  0  0  0
116126  1  0  0  0  0
116143  1  0  0  0  0
116144  1  0  0  0  0
117125  1  0  0  0  0
117141  1  0  0  0  0
117142  1  0  0  0  0
118145  1  0  0  0  0
118146  1  0  0  0  0
118147  1  0  0  0  0
119148  1  0  0  0  0
119149  1  0  0  0  0
119150  1  0  0  0  0
120151  1  0  0  0  0
120152  1  0  0  0  0
120153  1  0  0  0  0
121127  1  0  0  0  0
121154  1  0  0  0  0
121155  1  0  0  0  0
122128  1  0  0  0  0
122156  1  0  0  0  0
122157  1  0  0  0  0
123129  1  0  0  0  0
123158  1  0  0  0  0
123159  1  0  0  0  0
124130  1  0  0  0  0
124160  1  0  0  0  0
124161  1  0  0  0  0
125131  1  0  0  0  0
125162  1  0  0  0  0
125165  1  0  0  0  0
126132  1  0  0  0  0
126163  1  0  0  0  0
126164  1  0  0  0  0
127166  1  0  0  0  0
127167  1  0  0  0  0
128168  1  0  0  0  0
128169  1  0  0  0  0
129170  1  0  0  0  0
129171  1  0  0  0  0
130172  1  0  0  0  0
130173  1  0  0  0  0
131174  1  0  0  0  0
131175  1  0  0  0  0
132176  1  0  0  0  0
132177  1  0  0  0  0
M  END
> <PUBCHEM_COMPOUND_CID>
45278411

> <PUBCHEM_COMPOUND_CANONICALIZED>
1

> <PUBCHEM_CACTVS_COMPLEXITY>
4900

> <PUBCHEM_CACTVS_HBOND_ACCEPTOR>
39

> <PUBCHEM_CACTVS_HBOND_DONOR>
6

> <PUBCHEM_CACTVS_ROTATABLE_BOND>
39

> <PUBCHEM_CACTVS_SUBSKEYS>
AAADcfB/v8AAAAAAAAAAAAAAAAAAAYMGDBgwYMGDAAAAAAABVAAAHwAQAAAADgDhmAYCCMBABACIAgDQCAACAAAgAAAAiIEAAIgIIDaIEBCCIAAnsAAIiAeIyPCPwAACAAAQAACAAAQAACAAAQAACAAAAA==

> <PUBCHEM_IUPAC_OPENEYE_NAME>
bis(3-aminopropyl) methyl [35,46-bis[1,1-bis(3-aminopropoxycarbonyl)-2-methoxy-2-oxo-ethyl]-2,3,4,11,12,16,17,28,29,33,34,47,48,49,50-pentadecafluoro-[60]fulleren-1-yl]methanetricarboxylate

> <PUBCHEM_IUPAC_CAS_NAME>
[41,48-bis[1-(3-aminopropoxy)-2-[3-aminopropoxy(oxo)methyl]-3-methoxy-1,3-dioxopropan-2-yl]-7,8,9,10,11,22,23,28,29,42,43,46,47,57,58-pentadecafluoro-1-(C\{60}-I\{h})[5,6]fullerenyl]methanetricarboxylic acid bis(3-aminopropyl) ester methyl ester

> <PUBCHEM_IUPAC_NAME>
bis(3-aminopropyl) methyl [41,48-bis[1-(3-aminopropoxy)-2-(3-aminopropoxycarbonyl)-3-methoxy-1,3-dioxopropan-2-yl]-7,8,9,10,11,22,23,28,29,42,43,46,47,57,58-pentadecafluoro(C\{60}-I\{h})[5,6]fulleren-1-yl]methanetricarboxylate

> <PUBCHEM_IUPAC_SYSTEMATIC_NAME>
bis(3-azanylpropyl) methyl [41,48-bis[1-(3-azanylpropoxy)-2-(3-azanylpropoxycarbonyl)-3-methoxy-1,3-bis(oxidanylidene)propan-2-yl]-7,8,9,10,11,22,23,28,29,42,43,46,47,57,58-pentadecakis(fluoranyl)(C\{60}-I\{h})[5,6]fulleren-1-yl]methanetricarboxylate

> <PUBCHEM_IUPAC_TRADITIONAL_NAME>
[35,46-bis[1,1-bis(3-aminopropoxycarbonyl)-2-keto-2-methoxy-ethyl]-2,3,4,11,12,16,17,28,29,33,34,47,48,49,50-pentadecafluoro-buckminsterfulleren-1-yl]methanetricarboxylic acid bis(3-aminopropyl) ester methyl ester

> <PUBCHEM_NIST_INCHI>
InChI=1S/C93H57F15N6O18/c1-124-64(115)73(67(118)127-16-4-10-109,68(119)128-17-5-11-110)76-46-37-28-22-23-25-27-26-24(22)30-34(28)43-52(46)79(94)81(96)54(43)48-39(30)41-32(26)36-33(27)42-40-31(25)35-29(23)38(37)47(76)53-44(35)55-49(40)78(75(66(117)126-3,71(122)131-20-8-14-113)72(123)132-21-9-15-114)51(42)57-45(36)56-50(41)77(48,74(65(116)125-2,69(120)129-18-6-12-111)70(121)130-19-7-13-112)92(107)87(81,102)60-58-59-61-63-62(60)89(92,104)83(56,98)84(57,99)90(63,105)93(78,108)88(61,103)82(55,97)80(53,95)86(59,101)91(76,106)85(58,79)100/h4-21,109-114H2,1-3H3

> <PUBCHEM_NIST_INCHIKEY>
ATTIWYYQMRJLOM-UHFFFAOYSA-N

> <PUBCHEM_XLOGP3_AA>
5.1

> <PUBCHEM_EXACT_MASS>
1831.352337

> <PUBCHEM_MOLECULAR_FORMULA>
C93H57F15N6O18

> <PUBCHEM_MOLECULAR_WEIGHT>
1831.453128

> <PUBCHEM_OPENEYE_CAN_SMILES>
COC(=O)C(C(=O)OCCCN)(C(=O)OCCCN)C12C3=C4C5=C6C7=C8C9=C5C5=C3C3=C%10C%11=C%12C%13=C(C9=C%115)C5=C8C8=C9C%11=C%14C%15=C(C%13=C5%11)C5=C%11C%15(C%13(C%15(C%16=C%17C%18=C%19C%20=C%16C%13(C%14(C9(C%20(C(C87C(C(=O)OC)(C(=O)OCCCN)C(=O)OCCCN)(C%19(C6(C4(C%18(C1(C%17(C1(C%15(C%11=C(C%10=C%125)C1=C23)F)F)F)F)F)F)F)F)F)F)F)F)F)F)F)C(C(=O)OC)(C(=O)OCCCN)C(=O)OCCCN

> <PUBCHEM_OPENEYE_ISO_SMILES>
COC(=O)C(C(=O)OCCCN)(C(=O)OCCCN)C12C3=C4C5=C6C7=C8C9=C5C5=C3C3=C%10C%11=C%12C%13=C(C9=C%115)C5=C8C8=C9C%11=C%14C%15=C(C%13=C5%11)C5=C%11C%15(C%13(C%15(C%16=C%17C%18=C%19C%20=C%16C%13(C%14(C9(C%20(C(C87C(C(=O)OC)(C(=O)OCCCN)C(=O)OCCCN)(C%19(C6(C4(C%18(C1(C%17(C1(C%15(C%11=C(C%10=C%125)C1=C23)F)F)F)F)F)F)F)F)F)F)F)F)F)F)F)C(C(=O)OC)(C(=O)OCCCN)C(=O)OCCCN

> <PUBCHEM_CACTVS_TPSA>
393

> <PUBCHEM_MONOISOTOPIC_WEIGHT>
1830.348982

> <PUBCHEM_TOTAL_CHARGE>
0

> <PUBCHEM_HEAVY_ATOM_COUNT>
132

> <PUBCHEM_ATOM_DEF_STEREO_COUNT>
0

> <PUBCHEM_ATOM_UDEF_STEREO_COUNT>
12

> <PUBCHEM_BOND_DEF_STEREO_COUNT>
0

> <PUBCHEM_BOND_UDEF_STEREO_COUNT>
0

> <PUBCHEM_ISOTOPIC_ATOM_COUNT>
0

> <PUBCHEM_COMPONENT_COUNT>
1

> <PUBCHEM_CACTVS_TAUTO_COUNT>
1

> <PUBCHEM_COORDINATE_TYPE>
1
3

> <PUBCHEM_BONDANNOTATIONS>
49  10  3
101  102  8
50  11  3
51  12  3
52  13  3
53  14  3
54  15  3
43  4  3
44  5  3
58  59  8
58  61  8
59  62  8
45  6  3
60  61  8
60  63  8
62  63  8
64  70  8
64  76  8
65  71  8
65  77  8
66  72  8
66  78  8
67  73  8
67  76  8
68  74  8
68  77  8
69  75  8
69  78  8
46  7  3
70  79  8
71  80  8
72  81  8
73  82  8
74  83  8
75  84  8
76  88  8
77  89  8
78  90  8
79  80  8
79  91  8
47  8  3
80  92  8
81  82  8
81  93  8
82  94  8
83  84  8
83  95  8
84  96  8
88  91  8
88  94  8
89  92  8
89  95  8
48  9  3
90  93  8
90  96  8
91  97  8
92  98  8
93  99  8
94  100  8
95  101  8
96  102  8
97  100  8
97  98  8
98  101  8
99  100  8
99  102  8

$$$$

