46855090
  -OEChem-10021005312D

110140  0     1  0  0  0  0  0999 V2000
    3.2263   -0.7535    0.0000 O   0  0  0  0  0  0  0  0  0  0  0  0
    4.0022   -1.2028    0.0000 O   0  0  0  0  0  0  0  0  0  0  0  0
   10.5135   -3.4901    0.0000 O   0  0  0  0  0  0  0  0  0  0  0  0
    8.0643   -3.5280    0.0000 O   0  0  0  0  0  0  0  0  0  0  0  0
    7.5901   -1.8621    0.0000 O   0  0  0  0  0  0  0  0  0  0  0  0
    8.8476   -3.9642    0.0000 O   0  0  0  0  0  0  0  0  0  0  0  0
    2.7801    0.9201    0.0000 O   0  0  0  0  0  0  0  0  0  0  0  0
    5.6758   -0.7566    0.0000 O   0  0  0  0  0  0  0  0  0  0  0  0
    8.9962   -1.3226    0.0000 C   0  0  3  0  0  0  0  0  0  0  0  0
    5.4189    0.7273    0.0000 C   0  0  3  0  0  0  0  0  0  0  0  0
    5.6800    0.1352    0.0000 C   0  0  0  0  0  0  0  0  0  0  0  0
    8.3444   -1.4102    0.0000 C   0  0  0  0  0  0  0  0  0  0  0  0
    6.0043    0.3797    0.0000 C   0  0  0  0  0  0  0  0  0  0  0  0
    8.4138   -0.9757    0.0000 C   0  0  0  0  0  0  0  0  0  0  0  0
   10.1462   -0.8078    0.0000 C   0  0  0  0  0  0  0  0  0  0  0  0
    5.2859    1.9804    0.0000 C   0  0  0  0  0  0  0  0  0  0  0  0
    7.1112   -1.1490    0.0000 C   0  0  0  0  0  0  0  0  0  0  0  0
    6.5243   -0.8007    0.0000 C   0  0  0  0  0  0  0  0  0  0  0  0
    6.8518   -0.5605    0.0000 C   0  0  0  0  0  0  0  0  0  0  0  0
    7.1743   -0.7148    0.0000 C   0  0  0  0  0  0  0  0  0  0  0  0
    5.8085    0.7994    0.0000 C   0  0  0  0  0  0  0  0  0  0  0  0
    8.8462   -0.9831    0.0000 C   0  0  0  0  0  0  0  0  0  0  0  0
    6.2328    1.4188    0.0000 C   0  0  0  0  0  0  0  0  0  0  0  0
    9.2042   -0.2469    0.0000 C   0  0  0  0  0  0  0  0  0  0  0  0
    7.9242   -0.4576    0.0000 C   0  0  0  0  0  0  0  0  0  0  0  0
    6.7320    0.2743    0.0000 C   0  0  0  0  0  0  0  0  0  0  0  0
    5.7888    2.4078    0.0000 C   0  0  0  0  0  0  0  0  0  0  0  0
   10.2753   -0.1427    0.0000 C   0  0  0  0  0  0  0  0  0  0  0  0
   10.6493   -0.3786    0.0000 C   0  0  0  0  0  0  0  0  0  0  0  0
    5.4127    2.6479    0.0000 C   0  0  0  0  0  0  0  0  0  0  0  0
   10.0017   -0.4659    0.0000 C   0  0  0  0  0  0  0  0  0  0  0  0
    5.6746    2.0585    0.0000 C   0  0  0  0  0  0  0  0  0  0  0  0
    8.7598    0.7474    0.0000 C   0  0  0  0  0  0  0  0  0  0  0  0
    7.3096    1.5224    0.0000 C   0  0  0  0  0  0  0  0  0  0  0  0
    8.1534    0.5862    0.0000 C   0  0  0  0  0  0  0  0  0  0  0  0
    7.5266    1.0063    0.0000 C   0  0  0  0  0  0  0  0  0  0  0  0
   10.9081    0.9547    0.0000 C   0  0  0  0  0  0  0  0  0  0  0  0
    6.4213    3.5049    0.0000 C   0  0  0  0  0  0  0  0  0  0  0  0
    6.4657    2.7861    0.0000 C   0  0  0  0  0  0  0  0  0  0  0  0
   10.2309    0.5734    0.0000 C   0  0  0  0  0  0  0  0  0  0  0  0
    6.0424    3.7400    0.0000 C   0  0  0  0  0  0  0  0  0  0  0  0
   11.2774    0.7136    0.0000 C   0  0  0  0  0  0  0  0  0  0  0  0
    7.3934    2.2593    0.0000 C   0  0  0  0  0  0  0  0  0  0  0  0
    9.3045    1.1001    0.0000 C   0  0  0  0  0  0  0  0  0  0  0  0
    7.9390    2.6142    0.0000 C   0  0  0  0  0  0  0  0  0  0  0  0
    9.3888    1.8405    0.0000 C   0  0  0  0  0  0  0  0  0  0  0  0
    9.2699   -2.2844    0.0000 C   0  0  0  0  0  0  0  0  0  0  0  0
    4.4526    0.4697    0.0000 C   0  0  0  0  0  0  0  0  0  0  0  0
   11.4073    1.3818    0.0000 C   0  0  0  0  0  0  0  0  0  0  0  0
    6.5476    4.1695    0.0000 C   0  0  0  0  0  0  0  0  0  0  0  0
    6.6935    3.8255    0.0000 C   0  0  0  0  0  0  0  0  0  0  0  0
   11.0186    1.3019    0.0000 C   0  0  0  0  0  0  0  0  0  0  0  0
    7.4940    3.6079    0.0000 C   0  0  0  0  0  0  0  0  0  0  0  0
   10.4671    1.9449    0.0000 C   0  0  0  0  0  0  0  0  0  0  0  0
    9.1715    2.3537    0.0000 C   0  0  0  0  0  0  0  0  0  0  0  0
    8.5435    2.7748    0.0000 C   0  0  0  0  0  0  0  0  0  0  0  0
    7.6990    4.6839    0.0000 C   0  0  0  0  0  0  0  0  0  0  0  0
   11.2761    2.6352    0.0000 C   0  0  0  0  0  0  0  0  0  0  0  0
    7.8495    4.3428    0.0000 C   0  0  0  0  0  0  0  0  0  0  0  0
   10.8860    2.5611    0.0000 C   0  0  0  0  0  0  0  0  0  0  0  0
   10.6950    2.9836    0.0000 C   0  0  0  0  0  0  0  0  0  0  0  0
    8.2831    4.3365    0.0000 C   0  0  0  0  0  0  0  0  0  0  0  0
    9.9642    3.0856    0.0000 C   0  0  0  0  0  0  0  0  0  0  0  0
    8.7725    3.8189    0.0000 C   0  0  0  0  0  0  0  0  0  0  0  0
    8.3512    4.7716    0.0000 C   0  0  0  0  0  0  0  0  0  0  0  0
   11.0139    3.2268    0.0000 C   0  0  0  0  0  0  0  0  0  0  0  0
    9.5218    4.0754    0.0000 C   0  0  0  0  0  0  0  0  0  0  0  0
    9.8466    3.9235    0.0000 C   0  0  0  0  0  0  0  0  0  0  0  0
    9.5851    4.5124    0.0000 C   0  0  0  0  0  0  0  0  0  0  0  0
   10.1702    4.1628    0.0000 C   0  0  0  0  0  0  0  0  0  0  0  0
   10.2317   -2.0107    0.0000 C   0  0  0  0  0  0  0  0  0  0  0  0
    4.1950    1.4360    0.0000 C   0  0  0  0  0  0  0  0  0  0  0  0
    3.4864    0.2121    0.0000 C   0  0  0  0  0  0  0  0  0  0  0  0
    4.7102   -0.4966    0.0000 C   0  0  0  0  0  0  0  0  0  0  0  0
    9.5436   -3.2462    0.0000 C   0  0  0  0  0  0  0  0  0  0  0  0
    8.3081   -2.5582    0.0000 C   0  0  0  0  0  0  0  0  0  0  0  0
    7.1025   -3.8017    0.0000 C   0  0  0  0  0  0  0  0  0  0  0  0
   10.7872   -4.4519    0.0000 C   0  0  0  0  0  0  0  0  0  0  0  0
    4.2598   -2.1690    0.0000 C   0  0  0  0  0  0  0  0  0  0  0  0
    2.2600   -1.0111    0.0000 C   0  0  0  0  0  0  0  0  0  0  0  0
    2.0000   -1.9767    0.0000 C   0  0  0  0  0  0  0  0  0  0  0  0
    3.5518   -2.8752    0.0000 C   0  0  0  0  0  0  0  0  0  0  0  0
   11.7570   -4.6957    0.0000 C   0  0  0  0  0  0  0  0  0  0  0  0
    6.8586   -4.7716    0.0000 C   0  0  0  0  0  0  0  0  0  0  0  0
   10.4014   -2.6070    0.0000 H   0  0  0  0  0  0  0  0  0  0  0  0
   10.8280   -1.8410    0.0000 H   0  0  0  0  0  0  0  0  0  0  0  0
   10.0620   -1.4144    0.0000 H   0  0  0  0  0  0  0  0  0  0  0  0
    4.7941    1.5957    0.0000 H   0  0  0  0  0  0  0  0  0  0  0  0
    4.0353    2.0350    0.0000 H   0  0  0  0  0  0  0  0  0  0  0  0
    3.5959    1.2762    0.0000 H   0  0  0  0  0  0  0  0  0  0  0  0
    2.2068   -0.3934    0.0000 H   0  0  0  0  0  0  0  0  0  0  0  0
    1.6425   -0.9563    0.0000 H   0  0  0  0  0  0  0  0  0  0  0  0
    4.6148   -2.6774    0.0000 H   0  0  0  0  0  0  0  0  0  0  0  0
    4.8220   -1.9077    0.0000 H   0  0  0  0  0  0  0  0  0  0  0  0
   10.1705   -4.5155    0.0000 H   0  0  0  0  0  0  0  0  0  0  0  0
   10.7427   -5.0703    0.0000 H   0  0  0  0  0  0  0  0  0  0  0  0
    7.0389   -3.1850    0.0000 H   0  0  0  0  0  0  0  0  0  0  0  0
    6.4841   -3.7573    0.0000 H   0  0  0  0  0  0  0  0  0  0  0  0
    6.2573   -4.6204    0.0000 H   0  0  0  0  0  0  0  0  0  0  0  0
    6.7074   -5.3728    0.0000 H   0  0  0  0  0  0  0  0  0  0  0  0
    7.4599   -4.9227    0.0000 H   0  0  0  0  0  0  0  0  0  0  0  0
   11.6058   -5.2970    0.0000 H   0  0  0  0  0  0  0  0  0  0  0  0
   12.3583   -4.8469    0.0000 H   0  0  0  0  0  0  0  0  0  0  0  0
   11.9082   -4.0944    0.0000 H   0  0  0  0  0  0  0  0  0  0  0  0
    3.1139   -2.4363    0.0000 H   0  0  0  0  0  0  0  0  0  0  0  0
    3.1128   -3.3131    0.0000 H   0  0  0  0  0  0  0  0  0  0  0  0
    1.4013   -1.8154    0.0000 H   0  0  0  0  0  0  0  0  0  0  0  0
    1.8388   -2.5753    0.0000 H   0  0  0  0  0  0  0  0  0  0  0  0
    2.5987   -2.1379    0.0000 H   0  0  0  0  0  0  0  0  0  0  0  0
    3.9896   -3.3142    0.0000 H   0  0  0  0  0  0  0  0  0  0  0  0
  1 73  1  0  0  0  0
  1 80  1  0  0  0  0
  2 74  1  0  0  0  0
  2 79  1  0  0  0  0
  3 75  1  0  0  0  0
  3 78  1  0  0  0  0
  4 76  1  0  0  0  0
  4 77  1  0  0  0  0
  5 76  2  0  0  0  0
  6 75  2  0  0  0  0
  7 73  2  0  0  0  0
  8 74  2  0  0  0  0
  9 12  1  0  0  0  0
  9 14  1  0  0  0  0
  9 15  1  0  0  0  0
  9 47  1  0  0  0  0
 10 11  1  0  0  0  0
 10 13  1  0  0  0  0
 10 16  1  0  0  0  0
 10 48  1  0  0  0  0
 11 18  2  0  0  0  0
 11 21  1  0  0  0  0
 12 17  2  0  0  0  0
 12 22  1  0  0  0  0
 13 19  1  0  0  0  0
 13 23  2  0  0  0  0
 14 20  1  0  0  0  0
 14 24  2  0  0  0  0
 15 28  1  0  0  0  0
 15 29  2  0  0  0  0
 16 27  1  0  0  0  0
 16 30  2  0  0  0  0
 17 18  1  0  0  0  0
 17 19  1  0  0  0  0
 18 20  1  0  0  0  0
 19 25  2  0  0  0  0
 20 26  2  0  0  0  0
 21 26  1  0  0  0  0
 21 32  2  0  0  0  0
 22 25  1  0  0  0  0
 22 31  2  0  0  0  0
 23 27  1  0  0  0  0
 23 34  1  0  0  0  0
 24 28  1  0  0  0  0
 24 33  1  0  0  0  0
 25 35  1  0  0  0  0
 26 36  1  0  0  0  0
 27 38  2  0  0  0  0
 28 37  2  0  0  0  0
 29 31  1  0  0  0  0
 29 42  1  0  0  0  0
 30 32  1  0  0  0  0
 30 41  1  0  0  0  0
 31 40  1  0  0  0  0
 32 39  1  0  0  0  0
 33 36  2  0  0  0  0
 33 46  1  0  0  0  0
 34 35  2  0  0  0  0
 34 45  1  0  0  0  0
 35 44  1  0  0  0  0
 36 43  1  0  0  0  0
 37 49  1  0  0  0  0
 37 54  1  0  0  0  0
 38 50  1  0  0  0  0
 38 53  1  0  0  0  0
 39 43  1  0  0  0  0
 39 51  2  0  0  0  0
 40 44  1  0  0  0  0
 40 52  2  0  0  0  0
 41 50  2  0  0  0  0
 41 51  1  0  0  0  0
 42 49  2  0  0  0  0
 42 52  1  0  0  0  0
 43 56  2  0  0  0  0
 44 55  2  0  0  0  0
 45 53  2  0  0  0  0
 45 55  1  0  0  0  0
 46 54  2  0  0  0  0
 46 56  1  0  0  0  0
 47 71  1  0  0  0  0
 47 75  1  0  0  0  0
 47 76  1  0  0  0  0
 48 72  1  0  0  0  0
 48 73  1  0  0  0  0
 48 74  1  0  0  0  0
 49 58  1  0  0  0  0
 50 57  1  0  0  0  0
 51 59  1  0  0  0  0
 52 60  1  0  0  0  0
 53 62  1  0  0  0  0
 54 61  1  0  0  0  0
 55 63  1  0  0  0  0
 56 64  1  0  0  0  0
 57 62  2  0  0  0  0
 57 65  1  0  0  0  0
 58 61  2  0  0  0  0
 58 66  1  0  0  0  0
 59 64  1  0  0  0  0
 59 65  2  0  0  0  0
 60 63  1  0  0  0  0
 60 66  2  0  0  0  0
 61 68  1  0  0  0  0
 62 67  1  0  0  0  0
 63 67  2  0  0  0  0
 64 68  2  0  0  0  0
 65 69  1  0  0  0  0
 66 70  1  0  0  0  0
 67 70  1  0  0  0  0
 68 69  1  0  0  0  0
 69 70  2  0  0  0  0
 71 85  1  0  0  0  0
 71 86  1  0  0  0  0
 71 87  1  0  0  0  0
 72 88  1  0  0  0  0
 72 89  1  0  0  0  0
 72 90  1  0  0  0  0
 77 84  1  0  0  0  0
 77 97  1  0  0  0  0
 77 98  1  0  0  0  0
 78 83  1  0  0  0  0
 78 95  1  0  0  0  0
 78 96  1  0  0  0  0
 79 82  1  0  0  0  0
 79 93  1  0  0  0  0
 79 94  1  0  0  0  0
 80 81  1  0  0  0  0
 80 91  1  0  0  0  0
 80 92  1  0  0  0  0
 81107  1  0  0  0  0
 81108  1  0  0  0  0
 81109  1  0  0  0  0
 82105  1  0  0  0  0
 82106  1  0  0  0  0
 82110  1  0  0  0  0
 83102  1  0  0  0  0
 83103  1  0  0  0  0
 83104  1  0  0  0  0
 84 99  1  0  0  0  0
 84100  1  0  0  0  0
 84101  1  0  0  0  0
M  END
> <PUBCHEM_COMPOUND_CID>
46855090

> <PUBCHEM_COMPOUND_CANONICALIZED>
1

> <PUBCHEM_CACTVS_COMPLEXITY>
4590

> <PUBCHEM_CACTVS_HBOND_ACCEPTOR>
8

> <PUBCHEM_CACTVS_HBOND_DONOR>
0

> <PUBCHEM_CACTVS_ROTATABLE_BOND>
14

> <PUBCHEM_CACTVS_SUBSKEYS>
AAADceB8PAAAAAAAAAAAAAAAAAAAAZMkSJEyZMmTIAAAAAABVAAAGgAAAAAADgCgmAICCMAABACIAgDQCAACAAAgAAAAiAEAAIgIIDaIEBCCIAAloAAIiAeIyPCPwAACAAAQAACAAAQAACAAAQAACAAAAA==

> <PUBCHEM_IUPAC_OPENEYE_NAME>
diethyl 2-[16-(2-ethoxy-1-ethoxycarbonyl-1-methyl-2-oxo-ethyl)[60]fulleren-1-yl]-2-methyl-propanedioate

> <PUBCHEM_IUPAC_CAS_NAME>
2-[23-(1,3-diethoxy-2-methyl-1,3-dioxopropan-2-yl)-1-(C\{60}-I\{h})[5,6]fullerenyl]-2-methylpropanedioic acid diethyl ester

> <PUBCHEM_IUPAC_NAME>
diethyl 2-[23-(1,3-diethoxy-2-methyl-1,3-dioxopropan-2-yl)(C\{60}-I\{h})[5,6]fulleren-1-yl]-2-methylpropanedioate

> <PUBCHEM_IUPAC_SYSTEMATIC_NAME>
diethyl 2-[23-[1,3-diethoxy-2-methyl-1,3-bis(oxidanylidene)propan-2-yl](C\{60}-I\{h})[5,6]fulleren-1-yl]-2-methyl-propanedioate

> <PUBCHEM_IUPAC_TRADITIONAL_NAME>
2-[16-(1-carbethoxy-2-ethoxy-2-keto-1-methyl-ethyl)buckminsterfulleren-1-yl]-2-methyl-malonic acid diethyl ester

> <PUBCHEM_NIST_INCHI>
InChI=1S/C76H26O8/c1-7-81-69(77)73(5,70(78)82-8-2)75-63-51-41-33-19-15-14-12-11-13-16-20-18(11)26-22(14)30-32-24(15)27-35(33)47(51)53-49-40(27)46(32)58-56-44(30)38(26)42-34(20)36-28-23(16)31-29-21(13)25(17(12)19)37(41)43(29)55(63)57-45(31)39(28)50-54-48(36)52(42)64(56)76(74(6,71(79)83-9-3)72(80)84-10-4)66(54)62(59(50)67(57)75)61(65(53)75)60(49)68(58)76/h7-10H2,1-6H3

> <PUBCHEM_NIST_INCHIKEY>
JVAWGPYTAPGKIO-UHFFFAOYSA-N

> <PUBCHEM_EXACT_MASS>
1066.162768

> <PUBCHEM_MOLECULAR_FORMULA>
C76H26O8

> <PUBCHEM_MOLECULAR_WEIGHT>
1067.01484

> <PUBCHEM_OPENEYE_CAN_SMILES>
CCOC(=O)C(C)(C(=O)OCC)C12C3=C4C5=C6C7=C8C9=C%10C%11=C%12C9=C9C7=C7C5=C5C4=C4C1=C1C%13=C4C4=C%14C%15=C%16C(=C%12C%12=C%17C%11=C%11C%18=C%10C%10=C8C6=C3C3=C2C2=C(C%18=C%103)C3=C%11C%17=C6C(=C%16%12)C%14=C%13C6(C3=C21)C(C)(C(=O)OCC)C(=O)OCC)C9=C7C%15=C54

> <PUBCHEM_OPENEYE_ISO_SMILES>
CCOC(=O)C(C)(C(=O)OCC)C12C3=C4C5=C6C7=C8C9=C%10C%11=C%12C9=C9C7=C7C5=C5C4=C4C1=C1C%13=C4C4=C%14C%15=C%16C(=C%12C%12=C%17C%11=C%11C%18=C%10C%10=C8C6=C3C3=C2C2=C(C%18=C%103)C3=C%11C%17=C6C(=C%16%12)C%14=C%13C6(C3=C21)C(C)(C(=O)OCC)C(=O)OCC)C9=C7C%15=C54

> <PUBCHEM_CACTVS_TPSA>
105

> <PUBCHEM_MONOISOTOPIC_WEIGHT>
1066.162768

> <PUBCHEM_TOTAL_CHARGE>
0

> <PUBCHEM_HEAVY_ATOM_COUNT>
84

> <PUBCHEM_ATOM_DEF_STEREO_COUNT>
0

> <PUBCHEM_ATOM_UDEF_STEREO_COUNT>
2

> <PUBCHEM_BOND_DEF_STEREO_COUNT>
0

> <PUBCHEM_BOND_UDEF_STEREO_COUNT>
0

> <PUBCHEM_ISOTOPIC_ATOM_COUNT>
0

> <PUBCHEM_COMPONENT_COUNT>
1

> <PUBCHEM_CACTVS_TAUTO_COUNT>
1

> <PUBCHEM_COORDINATE_TYPE>
1
3

> <PUBCHEM_BONDANNOTATIONS>
10  48  3
11  18  8
11  21  8
12  17  8
12  22  8
13  19  8
13  23  8
14  20  8
14  24  8
15  28  8
15  29  8
16  27  8
16  30  8
17  18  8
17  19  8
18  20  8
19  25  8
20  26  8
21  26  8
21  32  8
22  25  8
22  31  8
23  27  8
23  34  8
24  28  8
24  33  8
25  35  8
26  36  8
27  38  8
28  37  8
29  31  8
29  42  8
30  32  8
30  41  8
31  40  8
32  39  8
33  36  8
33  46  8
34  35  8
34  45  8
35  44  8
36  43  8
37  49  8
37  54  8
38  50  8
38  53  8
39  43  8
39  51  8
40  44  8
40  52  8
41  50  8
41  51  8
42  49  8
42  52  8
43  56  8
44  55  8
45  53  8
45  55  8
46  54  8
46  56  8
49  58  8
50  57  8
51  59  8
52  60  8
53  62  8
54  61  8
55  63  8
56  64  8
57  62  8
57  65  8
58  61  8
58  66  8
59  64  8
59  65  8
60  63  8
60  66  8
61  68  8
62  67  8
63  67  8
64  68  8
65  69  8
66  70  8
67  70  8
68  69  8
69  70  8
9  47  3

$$$$

