47725
  -OEChem-10021005412D

175180  0     1  0  0  0  0  0999 V2000
   15.5814   -3.1978    0.0000 O   0  0  0  0  0  0  0  0  0  0  0  0
   16.9363   -3.0577    0.0000 O   0  0  0  0  0  0  0  0  0  0  0  0
   12.3352   -4.7669    0.0000 O   0  0  0  0  0  0  0  0  0  0  0  0
   13.5779   -0.9649    0.0000 O   0  0  0  0  0  0  0  0  0  0  0  0
   10.6423   -1.5835    0.0000 O   0  0  0  0  0  0  0  0  0  0  0  0
   20.4348   -3.9298    0.0000 O   0  0  0  0  0  0  0  0  0  0  0  0
   12.5528    1.4743    0.0000 O   0  0  0  0  0  0  0  0  0  0  0  0
    3.9639    5.8595    0.0000 O   0  0  0  0  0  0  0  0  0  0  0  0
    2.8484   10.0283    0.0000 O   0  0  0  0  0  0  0  0  0  0  0  0
    4.6318    5.1152    0.0000 O   0  0  0  0  0  0  0  0  0  0  0  0
    6.3246    1.9318    0.0000 O   0  0  0  0  0  0  0  0  0  0  0  0
    9.5708    3.5009    0.0000 O   0  0  0  0  0  0  0  0  0  0  0  0
    8.6388    0.6494    0.0000 O   0  0  0  0  0  0  0  0  0  0  0  0
   15.1312    3.7877    0.0000 O   0  0  0  0  0  0  0  0  0  0  0  0
   15.9386   -4.8926    0.0000 N   0  0  0  0  0  0  0  0  0  0  0  0
   13.6244   -3.6102    0.0000 N   0  0  0  0  0  0  0  0  0  0  0  0
   18.4348   -3.9264    0.0000 N   0  0  0  0  0  0  0  0  0  0  0  0
   12.2887   -2.1216    0.0000 N   0  0  0  0  0  0  0  0  0  0  0  0
   18.9363   -3.0612    0.0000 N   0  0  0  0  0  0  0  0  0  0  0  0
   15.0066   -7.7442    0.0000 N   0  0  0  0  0  0  0  0  0  0  0  0
   11.2637    0.3175    0.0000 N   0  0  0  0  0  0  0  0  0  0  0  0
    3.8163    8.5321    0.0000 N   0  0  0  0  0  0  0  0  0  0  0  0
   20.4378   -2.1978    0.0000 N   0  0  0  0  0  0  0  0  0  0  0  0
    5.2531    7.0162    0.0000 N   0  0  0  0  0  0  0  0  0  0  0  0
    9.9280    1.8061    0.0000 N   0  0  0  0  0  0  0  0  0  0  0  0
    6.2781    4.5771    0.0000 N   0  0  0  0  0  0  0  0  0  0  0  0
    7.6138    3.0885    0.0000 N   0  0  0  0  0  0  0  0  0  0  0  0
   15.3638   -9.4390    0.0000 N   0  0  0  0  0  0  0  0  0  0  0  0
   13.7174   -8.9009    0.0000 N   0  0  0  0  0  0  0  0  0  0  0  0
    4.6783    0.8604    0.0000 N   0  0  0  0  0  0  0  0  0  0  0  0
    8.1617    7.7360    0.0000 N   0  0  0  0  0  0  0  0  0  0  0  0
    7.2129    9.0467    0.0000 N   0  0  0  0  0  0  0  0  0  0  0  0
   16.9333   -4.7898    0.0000 C   0  0  3  0  0  0  0  0  0  0  0  0
   17.3384   -5.7040    0.0000 C   0  0  0  0  0  0  0  0  0  0  0  0
   16.5941   -6.3719    0.0000 C   0  0  0  0  0  0  0  0  0  0  0  0
   15.7290   -5.8704    0.0000 C   0  0  0  0  0  0  0  0  0  0  0  0
   15.2707   -4.1483    0.0000 C   0  0  0  0  0  0  0  0  0  0  0  0
   14.2922   -4.3545    0.0000 C   0  0  3  0  0  0  0  0  0  0  0  0
   17.4348   -3.9246    0.0000 C   0  0  0  0  0  0  0  0  0  0  0  0
   13.9816   -5.3050    0.0000 C   0  0  0  0  0  0  0  0  0  0  0  0
   14.6494   -6.0493    0.0000 C   0  0  0  0  0  0  0  0  0  0  0  0
   11.9780   -3.0721    0.0000 C   0  0  3  0  0  0  0  0  0  0  0  0
   12.6459   -3.8164    0.0000 C   0  0  0  0  0  0  0  0  0  0  0  0
   10.9995   -3.2784    0.0000 C   0  0  0  0  0  0  0  0  0  0  0  0
   10.6889   -4.2289    0.0000 C   0  0  0  0  0  0  0  0  0  0  0  0
   14.3387   -6.9998    0.0000 C   0  0  0  0  0  0  0  0  0  0  0  0
    9.7104   -4.4351    0.0000 C   0  0  0  0  0  0  0  0  0  0  0  0
   11.3567   -4.9732    0.0000 C   0  0  0  0  0  0  0  0  0  0  0  0
   11.6208   -1.3773    0.0000 C   0  0  0  0  0  0  0  0  0  0  0  0
   11.9315   -0.4268    0.0000 C   0  0  3  0  0  0  0  0  0  0  0  0
   12.9100   -0.2206    0.0000 C   0  0  0  0  0  0  0  0  0  0  0  0
   19.9363   -3.0629    0.0000 C   0  0  0  0  0  0  0  0  0  0  0  0
    3.6067    7.5543    0.0000 C   0  0  3  0  0  0  0  0  0  0  0  0
   14.5564   -0.7586    0.0000 C   0  0  0  0  0  0  0  0  0  0  0  0
   10.9065    2.0123    0.0000 C   0  0  3  0  0  0  0  0  0  0  0  0
   11.5743    1.2680    0.0000 C   0  0  0  0  0  0  0  0  0  0  0  0
   14.6959   -8.6947    0.0000 C   0  0  0  0  0  0  0  0  0  0  0  0
    2.6120    7.4515    0.0000 C   0  0  0  0  0  0  0  0  0  0  0  0
    5.9209    6.2719    0.0000 C   0  0  3  0  0  0  0  0  0  0  0  0
    5.9674    3.6266    0.0000 C   0  0  3  0  0  0  0  0  0  0  0  0
    2.2069    8.3658    0.0000 C   0  0  0  0  0  0  0  0  0  0  0  0
   11.2171    2.9629    0.0000 C   0  0  0  0  0  0  0  0  0  0  0  0
    4.9889    3.4204    0.0000 C   0  0  0  0  0  0  0  0  0  0  0  0
    4.2746    6.8100    0.0000 C   0  0  0  0  0  0  0  0  0  0  0  0
    2.9512    9.0336    0.0000 C   0  0  0  0  0  0  0  0  0  0  0  0
    6.8994    6.4782    0.0000 C   0  0  0  0  0  0  0  0  0  0  0  0
    8.2816    2.3442    0.0000 C   0  0  3  0  0  0  0  0  0  0  0  0
    5.6103    5.3214    0.0000 C   0  0  0  0  0  0  0  0  0  0  0  0
   15.5349   -0.5524    0.0000 C   0  0  0  0  0  0  0  0  0  0  0  0
   14.7626   -1.7372    0.0000 C   0  0  0  0  0  0  0  0  0  0  0  0
   14.3501    0.2199    0.0000 C   0  0  0  0  0  0  0  0  0  0  0  0
    4.6783    2.4698    0.0000 C   0  0  0  0  0  0  0  0  0  0  0  0
    6.6353    2.8823    0.0000 C   0  0  0  0  0  0  0  0  0  0  0  0
    9.2601    2.5504    0.0000 C   0  0  0  0  0  0  0  0  0  0  0  0
   12.1957    3.1691    0.0000 C   0  0  0  0  0  0  0  0  0  0  0  0
    3.7320    2.1651    0.0000 C   0  0  0  0  0  0  0  0  0  0  0  0
    7.2101    7.4287    0.0000 C   0  0  0  0  0  0  0  0  0  0  0  0
    5.2619    1.6651    0.0000 C   0  0  0  0  0  0  0  0  0  0  0  0
    3.7320    1.1651    0.0000 C   0  0  0  0  0  0  0  0  0  0  0  0
    7.9710    1.3937    0.0000 C   0  0  0  0  0  0  0  0  0  0  0  0
    2.8660    2.6651    0.0000 C   0  0  0  0  0  0  0  0  0  0  0  0
   12.8635    2.4248    0.0000 C   0  0  0  0  0  0  0  0  0  0  0  0
   12.5063    4.1196    0.0000 C   0  0  0  0  0  0  0  0  0  0  0  0
    2.8660    0.6651    0.0000 C   0  0  0  0  0  0  0  0  0  0  0  0
    6.6237    8.2387    0.0000 C   0  0  0  0  0  0  0  0  0  0  0  0
    2.0000    2.1651    0.0000 C   0  0  0  0  0  0  0  0  0  0  0  0
    2.0000    1.1651    0.0000 C   0  0  0  0  0  0  0  0  0  0  0  0
   13.8420    2.6310    0.0000 C   0  0  0  0  0  0  0  0  0  0  0  0
   13.4848    4.3258    0.0000 C   0  0  0  0  0  0  0  0  0  0  0  0
    8.1634    8.7360    0.0000 C   0  0  0  0  0  0  0  0  0  0  0  0
   14.1527    3.5815    0.0000 C   0  0  0  0  0  0  0  0  0  0  0  0
   16.5965   -4.2692    0.0000 H   0  0  0  0  0  0  0  0  0  0  0  0
   17.7020   -6.2063    0.0000 H   0  0  0  0  0  0  0  0  0  0  0  0
   17.8759   -5.3950    0.0000 H   0  0  0  0  0  0  0  0  0  0  0  0
   16.2288   -6.8728    0.0000 H   0  0  0  0  0  0  0  0  0  0  0  0
   17.0542   -6.7875    0.0000 H   0  0  0  0  0  0  0  0  0  0  0  0
   15.1396   -5.6778    0.0000 H   0  0  0  0  0  0  0  0  0  0  0  0
   15.4758   -6.4363    0.0000 H   0  0  0  0  0  0  0  0  0  0  0  0
   13.6856   -4.4824    0.0000 H   0  0  0  0  0  0  0  0  0  0  0  0
   13.4346   -5.0130    0.0000 H   0  0  0  0  0  0  0  0  0  0  0  0
   13.5990   -5.7929    0.0000 H   0  0  0  0  0  0  0  0  0  0  0  0
   13.8170   -3.0209    0.0000 H   0  0  0  0  0  0  0  0  0  0  0  0
   15.1963   -6.3414    0.0000 H   0  0  0  0  0  0  0  0  0  0  0  0
   15.0320   -5.5614    0.0000 H   0  0  0  0  0  0  0  0  0  0  0  0
   12.5847   -2.9443    0.0000 H   0  0  0  0  0  0  0  0  0  0  0  0
   18.7438   -4.4638    0.0000 H   0  0  0  0  0  0  0  0  0  0  0  0
   10.9790   -2.6587    0.0000 H   0  0  0  0  0  0  0  0  0  0  0  0
   10.3857   -3.1910    0.0000 H   0  0  0  0  0  0  0  0  0  0  0  0
   10.4963   -4.8182    0.0000 H   0  0  0  0  0  0  0  0  0  0  0  0
   13.7918   -6.7078    0.0000 H   0  0  0  0  0  0  0  0  0  0  0  0
   13.9562   -7.4878    0.0000 H   0  0  0  0  0  0  0  0  0  0  0  0
   12.8954   -1.9938    0.0000 H   0  0  0  0  0  0  0  0  0  0  0  0
   18.6272   -2.5237    0.0000 H   0  0  0  0  0  0  0  0  0  0  0  0
    9.5825   -3.8284    0.0000 H   0  0  0  0  0  0  0  0  0  0  0  0
    9.1037   -4.5629    0.0000 H   0  0  0  0  0  0  0  0  0  0  0  0
    9.8382   -5.0418    0.0000 H   0  0  0  0  0  0  0  0  0  0  0  0
   10.8952   -5.3872    0.0000 H   0  0  0  0  0  0  0  0  0  0  0  0
   11.7708   -5.4346    0.0000 H   0  0  0  0  0  0  0  0  0  0  0  0
   11.8182   -4.5591    0.0000 H   0  0  0  0  0  0  0  0  0  0  0  0
   11.3248   -0.5546    0.0000 H   0  0  0  0  0  0  0  0  0  0  0  0
   13.4364    0.1071    0.0000 H   0  0  0  0  0  0  0  0  0  0  0  0
   12.6788    0.3547    0.0000 H   0  0  0  0  0  0  0  0  0  0  0  0
   10.6570    0.1897    0.0000 H   0  0  0  0  0  0  0  0  0  0  0  0
    4.2059    7.7138    0.0000 H   0  0  0  0  0  0  0  0  0  0  0  0
   10.7139    1.4230    0.0000 H   0  0  0  0  0  0  0  0  0  0  0  0
    2.0220    7.2609    0.0000 H   0  0  0  0  0  0  0  0  0  0  0  0
    2.7399    6.8448    0.0000 H   0  0  0  0  0  0  0  0  0  0  0  0
    6.1135    6.8612    0.0000 H   0  0  0  0  0  0  0  0  0  0  0  0
    5.5534    4.0880    0.0000 H   0  0  0  0  0  0  0  0  0  0  0  0
    1.8433    8.8680    0.0000 H   0  0  0  0  0  0  0  0  0  0  0  0
    1.6694    8.0567    0.0000 H   0  0  0  0  0  0  0  0  0  0  0  0
   11.1966    3.5825    0.0000 H   0  0  0  0  0  0  0  0  0  0  0  0
   10.6033    3.0502    0.0000 H   0  0  0  0  0  0  0  0  0  0  0  0
    4.9684    4.0400    0.0000 H   0  0  0  0  0  0  0  0  0  0  0  0
    4.3751    3.5077    0.0000 H   0  0  0  0  0  0  0  0  0  0  0  0
    4.3832    8.7833    0.0000 H   0  0  0  0  0  0  0  0  0  0  0  0
    5.4457    7.6056    0.0000 H   0  0  0  0  0  0  0  0  0  0  0  0
    9.7354    1.2168    0.0000 H   0  0  0  0  0  0  0  0  0  0  0  0
   21.0578   -2.1988    0.0000 H   0  0  0  0  0  0  0  0  0  0  0  0
   20.1287   -1.6603    0.0000 H   0  0  0  0  0  0  0  0  0  0  0  0
    6.9200    5.8585    0.0000 H   0  0  0  0  0  0  0  0  0  0  0  0
    7.5132    6.3908    0.0000 H   0  0  0  0  0  0  0  0  0  0  0  0
    8.4742    2.9335    0.0000 H   0  0  0  0  0  0  0  0  0  0  0  0
    6.8848    4.7050    0.0000 H   0  0  0  0  0  0  0  0  0  0  0  0
   14.9568    0.3477    0.0000 H   0  0  0  0  0  0  0  0  0  0  0  0
   14.2223    0.8265    0.0000 H   0  0  0  0  0  0  0  0  0  0  0  0
   13.7435    0.0920    0.0000 H   0  0  0  0  0  0  0  0  0  0  0  0
   14.1559   -1.8650    0.0000 H   0  0  0  0  0  0  0  0  0  0  0  0
   14.8904   -2.3438    0.0000 H   0  0  0  0  0  0  0  0  0  0  0  0
   15.3693   -1.6093    0.0000 H   0  0  0  0  0  0  0  0  0  0  0  0
   15.6627   -1.1591    0.0000 H   0  0  0  0  0  0  0  0  0  0  0  0
   16.1415   -0.4246    0.0000 H   0  0  0  0  0  0  0  0  0  0  0  0
   15.4070    0.0542    0.0000 H   0  0  0  0  0  0  0  0  0  0  0  0
    7.8064    3.6778    0.0000 H   0  0  0  0  0  0  0  0  0  0  0  0
   15.1712  -10.0283    0.0000 H   0  0  0  0  0  0  0  0  0  0  0  0
   15.9704   -9.3111    0.0000 H   0  0  0  0  0  0  0  0  0  0  0  0
   13.5248   -9.4902    0.0000 H   0  0  0  0  0  0  0  0  0  0  0  0
   13.3034   -8.4394    0.0000 H   0  0  0  0  0  0  0  0  0  0  0  0
    5.8819    1.6651    0.0000 H   0  0  0  0  0  0  0  0  0  0  0  0
    7.4240    1.6857    0.0000 H   0  0  0  0  0  0  0  0  0  0  0  0
    7.5884    0.9058    0.0000 H   0  0  0  0  0  0  0  0  0  0  0  0
    4.8709    0.2711    0.0000 H   0  0  0  0  0  0  0  0  0  0  0  0
    2.8660    3.2851    0.0000 H   0  0  0  0  0  0  0  0  0  0  0  0
   12.6709    1.8354    0.0000 H   0  0  0  0  0  0  0  0  0  0  0  0
   12.0923    4.5811    0.0000 H   0  0  0  0  0  0  0  0  0  0  0  0
    2.8660    0.0451    0.0000 H   0  0  0  0  0  0  0  0  0  0  0  0
    8.6626    7.3708    0.0000 H   0  0  0  0  0  0  0  0  0  0  0  0
    6.0037    8.2398    0.0000 H   0  0  0  0  0  0  0  0  0  0  0  0
    1.4631    2.4751    0.0000 H   0  0  0  0  0  0  0  0  0  0  0  0
    1.4631    0.8551    0.0000 H   0  0  0  0  0  0  0  0  0  0  0  0
   14.2561    2.1695    0.0000 H   0  0  0  0  0  0  0  0  0  0  0  0
   13.6774    4.9151    0.0000 H   0  0  0  0  0  0  0  0  0  0  0  0
    8.6656    9.0996    0.0000 H   0  0  0  0  0  0  0  0  0  0  0  0
    8.4462    0.0601    0.0000 H   0  0  0  0  0  0  0  0  0  0  0  0
   15.5452    3.3263    0.0000 H   0  0  0  0  0  0  0  0  0  0  0  0
  1 37  2  0  0  0  0
  2 39  2  0  0  0  0
  3 43  2  0  0  0  0
  4 51  1  0  0  0  0
  4 54  1  0  0  0  0
  5 49  2  0  0  0  0
  6 52  2  0  0  0  0
  7 56  2  0  0  0  0
  8 64  2  0  0  0  0
  9 65  2  0  0  0  0
 10 68  2  0  0  0  0
 11 73  2  0  0  0  0
 12 74  2  0  0  0  0
 13 80  1  0  0  0  0
 13174  1  0  0  0  0
 14 91  1  0  0  0  0
 14175  1  0  0  0  0
 15 33  1  0  0  0  0
 15 36  1  0  0  0  0
 15 37  1  0  0  0  0
 16 38  1  0  0  0  0
 16 43  1  0  0  0  0
 16102  1  0  0  0  0
 17 19  1  0  0  0  0
 17 39  1  0  0  0  0
 17106  1  0  0  0  0
 18 42  1  0  0  0  0
 18 49  1  0  0  0  0
 18112  1  0  0  0  0
 19 52  1  0  0  0  0
 19113  1  0  0  0  0
 20 46  1  0  0  0  0
 20 57  2  0  0  0  0
 21 50  1  0  0  0  0
 21 56  1  0  0  0  0
 21123  1  0  0  0  0
 22 53  1  0  0  0  0
 22 65  1  0  0  0  0
 22136  1  0  0  0  0
 23 52  1  0  0  0  0
 23139  1  0  0  0  0
 23140  1  0  0  0  0
 24 59  1  0  0  0  0
 24 64  1  0  0  0  0
 24137  1  0  0  0  0
 25 55  1  0  0  0  0
 25 74  1  0  0  0  0
 25138  1  0  0  0  0
 26 60  1  0  0  0  0
 26 68  1  0  0  0  0
 26144  1  0  0  0  0
 27 67  1  0  0  0  0
 27 73  1  0  0  0  0
 27154  1  0  0  0  0
 28 57  1  0  0  0  0
 28155  1  0  0  0  0
 28156  1  0  0  0  0
 29 57  1  0  0  0  0
 29157  1  0  0  0  0
 29158  1  0  0  0  0
 30 78  1  0  0  0  0
 30 79  1  0  0  0  0
 30162  1  0  0  0  0
 31 77  1  0  0  0  0
 31 90  1  0  0  0  0
 31167  1  0  0  0  0
 32 85  1  0  0  0  0
 32 90  2  0  0  0  0
 33 34  1  0  0  0  0
 33 39  1  0  0  0  0
 33 92  1  0  0  0  0
 34 35  1  0  0  0  0
 34 93  1  0  0  0  0
 34 94  1  0  0  0  0
 35 36  1  0  0  0  0
 35 95  1  0  0  0  0
 35 96  1  0  0  0  0
 36 97  1  0  0  0  0
 36 98  1  0  0  0  0
 37 38  1  0  0  0  0
 38 40  1  0  0  0  0
 38 99  1  0  0  0  0
 40 41  1  0  0  0  0
 40100  1  0  0  0  0
 40101  1  0  0  0  0
 41 46  1  0  0  0  0
 41103  1  0  0  0  0
 41104  1  0  0  0  0
 42 43  1  0  0  0  0
 42 44  1  0  0  0  0
 42105  1  0  0  0  0
 44 45  1  0  0  0  0
 44107  1  0  0  0  0
 44108  1  0  0  0  0
 45 47  1  0  0  0  0
 45 48  1  0  0  0  0
 45109  1  0  0  0  0
 46110  1  0  0  0  0
 46111  1  0  0  0  0
 47114  1  0  0  0  0
 47115  1  0  0  0  0
 47116  1  0  0  0  0
 48117  1  0  0  0  0
 48118  1  0  0  0  0
 48119  1  0  0  0  0
 49 50  1  0  0  0  0
 50 51  1  0  0  0  0
 50120  1  0  0  0  0
 51121  1  0  0  0  0
 51122  1  0  0  0  0
 53 58  1  0  0  0  0
 53 64  1  0  0  0  0
 53124  1  0  0  0  0
 54 69  1  0  0  0  0
 54 70  1  0  0  0  0
 54 71  1  0  0  0  0
 55 56  1  0  0  0  0
 55 62  1  0  0  0  0
 55125  1  0  0  0  0
 58 61  1  0  0  0  0
 58126  1  0  0  0  0
 58127  1  0  0  0  0
 59 66  1  0  0  0  0
 59 68  1  0  0  0  0
 59128  1  0  0  0  0
 60 63  1  0  0  0  0
 60 73  1  0  0  0  0
 60129  1  0  0  0  0
 61 65  1  0  0  0  0
 61130  1  0  0  0  0
 61131  1  0  0  0  0
 62 75  1  0  0  0  0
 62132  1  0  0  0  0
 62133  1  0  0  0  0
 63 72  1  0  0  0  0
 63134  1  0  0  0  0
 63135  1  0  0  0  0
 66 77  1  0  0  0  0
 66141  1  0  0  0  0
 66142  1  0  0  0  0
 67 74  1  0  0  0  0
 67 80  1  0  0  0  0
 67143  1  0  0  0  0
 69151  1  0  0  0  0
 69152  1  0  0  0  0
 69153  1  0  0  0  0
 70148  1  0  0  0  0
 70149  1  0  0  0  0
 70150  1  0  0  0  0
 71145  1  0  0  0  0
 71146  1  0  0  0  0
 71147  1  0  0  0  0
 72 76  1  0  0  0  0
 72 78  2  0  0  0  0
 75 82  2  0  0  0  0
 75 83  1  0  0  0  0
 76 79  1  0  0  0  0
 76 81  2  0  0  0  0
 77 85  2  0  0  0  0
 78159  1  0  0  0  0
 79 84  2  0  0  0  0
 80160  1  0  0  0  0
 80161  1  0  0  0  0
 81 86  1  0  0  0  0
 81163  1  0  0  0  0
 82 88  1  0  0  0  0
 82164  1  0  0  0  0
 83 89  2  0  0  0  0
 83165  1  0  0  0  0
 84 87  1  0  0  0  0
 84166  1  0  0  0  0
 85168  1  0  0  0  0
 86 87  2  0  0  0  0
 86169  1  0  0  0  0
 87170  1  0  0  0  0
 88 91  2  0  0  0  0
 88171  1  0  0  0  0
 89 91  1  0  0  0  0
 89172  1  0  0  0  0
 90173  1  0  0  0  0
M  END
> <PUBCHEM_COMPOUND_CID>
47725

> <PUBCHEM_COMPOUND_CANONICALIZED>
1

> <PUBCHEM_CACTVS_COMPLEXITY>
2560

> <PUBCHEM_CACTVS_HBOND_ACCEPTOR>
18

> <PUBCHEM_CACTVS_HBOND_DONOR>
17

> <PUBCHEM_CACTVS_ROTATABLE_BOND>
32

> <PUBCHEM_CACTVS_SUBSKEYS>
AAADcfB//AAAAAAAAAAAAAAAAAAAAWLFiwAwYAAAAAAAAFgB/AAAHgAYCAAADWzhngY/1vfrlgCoAzV3dACCgC2xMqIf+aG+fJiKfvbC2bOXcAh+9hPY2Cecy+COoAAAAAACAABAAAAAAAQAAAAAAAAAAA==

> <PUBCHEM_IUPAC_OPENEYE_NAME>
N-[2-[[2-[[2-[[2-[[1-(tert-butoxymethyl)-2-[[1-[[4-guanidino-1-[2-(ureidocarbamoyl)pyrrolidine-1-carbonyl]butyl]carbamoyl]-3-methyl-butyl]amino]-2-oxo-ethyl]amino]-1-[(4-hydroxyphenyl)methyl]-2-oxo-ethyl]amino]-1-(hydroxymethyl)-2-oxo-ethyl]amino]-1-(1H-indol-3-ylmethyl)-2-oxo-ethyl]amino]-1-(1H-imidazol-5-ylmethyl)-2-oxo-ethyl]-5-oxo-pyrrolidine-2-carboxamide

> <PUBCHEM_IUPAC_CAS_NAME>
N-[1-[[1-[[1-[[1-[[1-[[1-[[1-[2-[(carbamoylhydrazo)-oxomethyl]-1-pyrrolidinyl]-5-(diaminomethylideneamino)-1-oxopentan-2-yl]amino]-4-methyl-1-oxopentan-2-yl]amino]-3-[(2-methylpropan-2-yl)oxy]-1-oxopropan-2-yl]amino]-3-(4-hydroxyphenyl)-1-oxopropan-2-yl]amino]-3-hydroxy-1-oxopropan-2-yl]amino]-3-(1H-indol-3-yl)-1-oxopropan-2-yl]amino]-3-(1H-imidazol-5-yl)-1-oxopropan-2-yl]-5-oxo-2-pyrrolidinecarboxamide

> <PUBCHEM_IUPAC_NAME>
N-[1-[[1-[[1-[[1-[[1-[[1-[[1-[2-[(carbamoylamino)carbamoyl]pyrrolidin-1-yl]-5-(diaminomethylideneamino)-1-oxopentan-2-yl]amino]-4-methyl-1-oxopentan-2-yl]amino]-3-[(2-methylpropan-2-yl)oxy]-1-oxopropan-2-yl]amino]-3-(4-hydroxyphenyl)-1-oxopropan-2-yl]amino]-3-hydroxy-1-oxopropan-2-yl]amino]-3-(1H-indol-3-yl)-1-oxopropan-2-yl]amino]-3-(1H-imidazol-5-yl)-1-oxopropan-2-yl]-5-oxopyrrolidine-2-carboxamide

> <PUBCHEM_IUPAC_SYSTEMATIC_NAME>
N-[1-[[1-[[1-[[1-[[1-[[1-[[1-[2-[(aminocarbonylamino)carbamoyl]pyrrolidin-1-yl]-5-[bis(azanyl)methylideneamino]-1-oxidanylidene-pentan-2-yl]amino]-4-methyl-1-oxidanylidene-pentan-2-yl]amino]-3-[(2-methylpropan-2-yl)oxy]-1-oxidanylidene-propan-2-yl]amino]-3-(4-hydroxyphenyl)-1-oxidanylidene-propan-2-yl]amino]-3-oxidanyl-1-oxidanylidene-propan-2-yl]amino]-3-(1H-indol-3-yl)-1-oxidanylidene-propan-2-yl]amino]-3-(1H-imidazol-5-yl)-1-oxidanylidene-propan-2-yl]-5-oxidanylidene-pyrrolidine-2-carboxamide

> <PUBCHEM_IUPAC_TRADITIONAL_NAME>
N-[2-[[2-[[2-[[2-[[1-(tert-butoxymethyl)-2-[[1-[[4-guanidino-1-[2-(ureidocarbamoyl)pyrrolidine-1-carbonyl]butyl]carbamoyl]-3-methyl-butyl]amino]-2-keto-ethyl]amino]-1-(4-hydroxybenzyl)-2-keto-ethyl]amino]-2-keto-1-methylol-ethyl]amino]-1-(1H-indol-3-ylmethyl)-2-keto-ethyl]amino]-1-(1H-imidazol-5-ylmethyl)-2-keto-ethyl]-5-keto-pyrrolidine-2-carboxamide

> <PUBCHEM_NIST_INCHI>
InChI=1S/C59H84N18O14/c1-31(2)22-40(49(82)68-39(12-8-20-64-57(60)61)56(89)77-21-9-13-46(77)55(88)75-76-58(62)90)69-54(87)45(29-91-59(3,4)5)74-50(83)41(23-32-14-16-35(79)17-15-32)70-53(86)44(28-78)73-51(84)42(24-33-26-65-37-11-7-6-10-36(33)37)71-52(85)43(25-34-27-63-30-66-34)72-48(81)38-18-19-47(80)67-38/h6-7,10-11,14-17,26-27,30-31,38-46,65,78-79H,8-9,12-13,18-25,28-29H2,1-5H3,(H,63,66)(H,67,80)(H,68,82)(H,69,87)(H,70,86)(H,71,85)(H,72,81)(H,73,84)(H,74,83)(H,75,88)(H4,60,61,64)(H3,62,76,90)

> <PUBCHEM_NIST_INCHIKEY>
BLCLNMBMMGCOAS-UHFFFAOYSA-N

> <PUBCHEM_XLOGP3_AA>
-1.5

> <PUBCHEM_EXACT_MASS>
1268.641439

> <PUBCHEM_MOLECULAR_FORMULA>
C59H84N18O14

> <PUBCHEM_MOLECULAR_WEIGHT>
1269.41046

> <PUBCHEM_OPENEYE_CAN_SMILES>
CC(C)CC(C(=O)NC(CCCN=C(N)N)C(=O)N1CCCC1C(=O)NNC(=O)N)NC(=O)C(COC(C)(C)C)NC(=O)C(CC2=CC=C(C=C2)O)NC(=O)C(CO)NC(=O)C(CC3=CNC4=CC=CC=C43)NC(=O)C(CC5=CN=CN5)NC(=O)C6CCC(=O)N6

> <PUBCHEM_OPENEYE_ISO_SMILES>
CC(C)CC(C(=O)NC(CCCN=C(N)N)C(=O)N1CCCC1C(=O)NNC(=O)N)NC(=O)C(COC(C)(C)C)NC(=O)C(CC2=CC=C(C=C2)O)NC(=O)C(CO)NC(=O)C(CC3=CNC4=CC=CC=C43)NC(=O)C(CC5=CN=CN5)NC(=O)C6CCC(=O)N6

> <PUBCHEM_CACTVS_TPSA>
496

> <PUBCHEM_MONOISOTOPIC_WEIGHT>
1268.641439

> <PUBCHEM_TOTAL_CHARGE>
0

> <PUBCHEM_HEAVY_ATOM_COUNT>
91

> <PUBCHEM_ATOM_DEF_STEREO_COUNT>
0

> <PUBCHEM_ATOM_UDEF_STEREO_COUNT>
9

> <PUBCHEM_BOND_DEF_STEREO_COUNT>
0

> <PUBCHEM_BOND_UDEF_STEREO_COUNT>
0

> <PUBCHEM_ISOTOPIC_ATOM_COUNT>
0

> <PUBCHEM_COMPONENT_COUNT>
1

> <PUBCHEM_CACTVS_TAUTO_COUNT>
1000

> <PUBCHEM_COORDINATE_TYPE>
1
3

> <PUBCHEM_BONDANNOTATIONS>
30  78  8
30  79  8
31  77  8
31  90  8
32  85  8
32  90  8
33  39  3
38  40  3
42  44  3
50  51  3
53  64  3
55  62  3
59  66  3
60  63  3
67  80  3
72  76  8
72  78  8
75  82  8
75  83  8
76  79  8
76  81  8
77  85  8
79  84  8
81  86  8
82  88  8
83  89  8
84  87  8
86  87  8
88  91  8
89  91  8

$$$$

