6452407
  -OEChem-10021002443D

 51 55  0     1  0  0  0  0  0999 V2000
   -1.2424   -2.4950    1.6397 O   0  0  0  0  0  0  0  0  0  0  0  0
   -3.6001    1.2141    0.7724 O   0  0  0  0  0  0  0  0  0  0  0  0
   -2.1750   -1.5541   -1.6838 O   0  0  0  0  0  0  0  0  0  0  0  0
   -1.4227   -0.6149    2.9277 O   0  0  0  0  0  0  0  0  0  0  0  0
    0.9804    0.4262    0.1787 O   0  0  0  0  0  0  0  0  0  0  0  0
   -1.2295    0.3956   -2.4849 O   0  0  0  0  0  0  0  0  0  0  0  0
    1.8282    4.4019   -0.0306 O   0  0  0  0  0  0  0  0  0  0  0  0
   -1.8821   -0.5084    0.5297 C   0  0  1  0  0  0  0  0  0  0  0  0
   -1.4087   -1.5414   -0.4939 C   0  0  1  0  0  0  0  0  0  0  0  0
   -1.4778   -2.8661    0.2690 C   0  0  0  0  0  0  0  0  0  0  0  0
   -1.3390    0.8756    0.4020 C   0  0  0  0  0  0  0  0  0  0  0  0
   -3.3948   -0.1960    0.5185 C   0  0  0  0  0  0  0  0  0  0  0  0
   -1.4933   -1.1643    1.8383 C   0  0  0  0  0  0  0  0  0  0  0  0
   -2.3766    1.7872    0.5500 C   0  0  0  0  0  0  0  0  0  0  0  0
   -0.3596   -3.8167   -0.1623 C   0  0  0  0  0  0  0  0  0  0  0  0
   -2.8237   -3.5920    0.1848 C   0  0  0  0  0  0  0  0  0  0  0  0
   -0.0381    1.3381    0.2485 C   0  0  0  0  0  0  0  0  0  0  0  0
   -2.1765    3.1565    0.5189 C   0  0  0  0  0  0  0  0  0  0  0  0
    0.1846    2.7183    0.2033 C   0  0  0  0  0  0  0  0  0  0  0  0
   -0.8780    3.6272    0.3318 C   0  0  0  0  0  0  0  0  0  0  0  0
   -2.1562   -0.4010   -2.4240 C   0  0  0  0  0  0  0  0  0  0  0  0
    1.5624    3.2097    0.0365 C   0  0  0  0  0  0  0  0  0  0  0  0
    2.2786    0.8862    0.0362 C   0  0  0  0  0  0  0  0  0  0  0  0
    2.6184    2.1817   -0.0442 C   0  0  0  0  0  0  0  0  0  0  0  0
   -3.4492   -0.2426   -3.1651 C   0  0  0  0  0  0  0  0  0  0  0  0
    3.2880   -0.1870   -0.0419 C   0  0  0  0  0  0  0  0  0  0  0  0
    4.4551    0.0000   -0.7870 C   0  0  0  0  0  0  0  0  0  0  0  0
    3.0817   -1.3952    0.6289 C   0  0  0  0  0  0  0  0  0  0  0  0
    5.4094   -1.0146   -0.8612 C   0  0  0  0  0  0  0  0  0  0  0  0
    4.0363   -2.4097    0.5547 C   0  0  0  0  0  0  0  0  0  0  0  0
    5.2001   -2.2193   -0.1904 C   0  0  0  0  0  0  0  0  0  0  0  0
   -0.3626   -1.3648   -0.7706 H   0  0  0  0  0  0  0  0  0  0  0  0
   -3.9038   -0.4287   -0.4189 H   0  0  0  0  0  0  0  0  0  0  0  0
   -3.9281   -0.7406    1.3068 H   0  0  0  0  0  0  0  0  0  0  0  0
   -0.4579   -4.1000   -1.2151 H   0  0  0  0  0  0  0  0  0  0  0  0
    0.6253   -3.3606   -0.0143 H   0  0  0  0  0  0  0  0  0  0  0  0
   -0.3663   -4.7280    0.4464 H   0  0  0  0  0  0  0  0  0  0  0  0
   -3.0472   -3.9142   -0.8372 H   0  0  0  0  0  0  0  0  0  0  0  0
   -2.8227   -4.4781    0.8305 H   0  0  0  0  0  0  0  0  0  0  0  0
   -3.6474   -2.9657    0.5383 H   0  0  0  0  0  0  0  0  0  0  0  0
   -3.0028    3.8485    0.6403 H   0  0  0  0  0  0  0  0  0  0  0  0
   -0.7058    4.6998    0.3036 H   0  0  0  0  0  0  0  0  0  0  0  0
    3.6365    2.5393   -0.1430 H   0  0  0  0  0  0  0  0  0  0  0  0
   -4.0479    0.5392   -2.6922 H   0  0  0  0  0  0  0  0  0  0  0  0
   -4.0151   -1.1787   -3.1665 H   0  0  0  0  0  0  0  0  0  0  0  0
   -3.2357    0.0209   -4.2045 H   0  0  0  0  0  0  0  0  0  0  0  0
    4.6457    0.9147   -1.3420 H   0  0  0  0  0  0  0  0  0  0  0  0
    2.1880   -1.5673    1.2238 H   0  0  0  0  0  0  0  0  0  0  0  0
    6.3134   -0.8689   -1.4453 H   0  0  0  0  0  0  0  0  0  0  0  0
    3.8740   -3.3474    1.0781 H   0  0  0  0  0  0  0  0  0  0  0  0
    5.9427   -3.0096   -0.2489 H   0  0  0  0  0  0  0  0  0  0  0  0
  1 10  1  0  0  0  0
  1 13  1  0  0  0  0
  2 12  1  0  0  0  0
  2 14  1  0  0  0  0
  3  9  1  0  0  0  0
  3 21  1  0  0  0  0
  4 13  2  0  0  0  0
  5 17  1  0  0  0  0
  5 23  1  0  0  0  0
  6 21  2  0  0  0  0
  7 22  2  0  0  0  0
  8  9  1  0  0  0  0
  8 11  1  0  0  0  0
  8 12  1  0  0  0  0
  8 13  1  0  0  0  0
  9 10  1  0  0  0  0
  9 32  1  0  0  0  0
 10 15  1  0  0  0  0
 10 16  1  0  0  0  0
 11 14  2  0  0  0  0
 11 17  1  0  0  0  0
 12 33  1  0  0  0  0
 12 34  1  0  0  0  0
 14 18  1  0  0  0  0
 15 35  1  0  0  0  0
 15 36  1  0  0  0  0
 15 37  1  0  0  0  0
 16 38  1  0  0  0  0
 16 39  1  0  0  0  0
 16 40  1  0  0  0  0
 17 19  2  0  0  0  0
 18 20  2  0  0  0  0
 18 41  1  0  0  0  0
 19 20  1  0  0  0  0
 19 22  1  0  0  0  0
 20 42  1  0  0  0  0
 21 25  1  0  0  0  0
 22 24  1  0  0  0  0
 23 24  2  0  0  0  0
 23 26  1  0  0  0  0
 24 43  1  0  0  0  0
 25 44  1  0  0  0  0
 25 45  1  0  0  0  0
 25 46  1  0  0  0  0
 26 27  2  0  0  0  0
 26 28  1  0  0  0  0
 27 29  1  0  0  0  0
 27 47  1  0  0  0  0
 28 30  2  0  0  0  0
 28 48  1  0  0  0  0
 29 31  2  0  0  0  0
 29 49  1  0  0  0  0
 30 31  1  0  0  0  0
 30 50  1  0  0  0  0
 31 51  1  0  0  0  0
M  END
> <PUBCHEM_COMPOUND_CID>
6452407

> <PUBCHEM_CONFORMER_RMSD>
0.8

> <PUBCHEM_CONFORMER_DIVERSEORDER>
1
4
5
3
2

> <PUBCHEM_MMFF94_PARTIAL_CHARGES>
37
1 -0.43
10 0.28
11 -0.14
12 0.28
13 0.66
14 0.08
17 0.08
18 -0.15
19 0.09
2 -0.36
20 -0.15
21 0.66
22 0.47
23 0.05
24 -0.14
25 0.06
26 0.03
27 -0.15
28 -0.15
29 -0.15
3 -0.43
30 -0.15
31 -0.15
4 -0.57
41 0.15
42 0.15
43 0.15
47 0.15
48 0.15
49 0.15
5 -0.16
50 0.15
51 0.15
6 -0.57
7 -0.57
8 0.2
9 0.28

> <PUBCHEM_EFFECTIVE_ROTOR_COUNT>
4

> <PUBCHEM_PHARMACOPHORE_FEATURES>
11
1 2 acceptor
1 4 acceptor
1 5 acceptor
1 6 acceptor
1 7 acceptor
3 10 15 16 hydrophobe
5 1 8 9 10 13 rings
5 2 8 11 12 14 rings
6 11 14 17 18 19 20 rings
6 26 27 28 29 30 31 rings
6 5 17 19 22 23 24 rings

> <PUBCHEM_HEAVY_ATOM_COUNT>
31

> <PUBCHEM_ATOM_DEF_STEREO_COUNT>
1

> <PUBCHEM_ATOM_UDEF_STEREO_COUNT>
1

> <PUBCHEM_BOND_DEF_STEREO_COUNT>
0

> <PUBCHEM_BOND_UDEF_STEREO_COUNT>
0

> <PUBCHEM_ISOTOPIC_ATOM_COUNT>
0

> <PUBCHEM_COMPONENT_COUNT>
1

> <PUBCHEM_CACTVS_TAUTO_COUNT>
1

> <PUBCHEM_CONFORMER_ID>
006274B700000001

> <PUBCHEM_MMFF94_ENERGY>
101.2619

> <PUBCHEM_FEATURE_SELFOVERLAP>
55.956

> <PUBCHEM_SHAPE_FINGERPRINT>
10764073 3 17985516027791886785
1100329 8 18409724067385630185
11578080 2 17844253929955056045
12035759 4 17903107716915127469
12156800 1 16904614784597038578
12422481 6 17753301418072868731
12553582 1 18410859888872557202
12788726 201 18121213453524475480
13140716 1 18262227833451085264
13642711 20 13448465279306655724
14659021 117 18265353848757811504
14790565 3 17978496865461403272
15210252 30 14887693997947288037
15274700 242 18056768843669088354
15420108 30 17174619781088995969
16728300 4 17699568344478776915
17809404 112 18194993784582738050
19591789 44 18122902289972096032
19930381 70 17834394518930943923
20465049 17 18123781814024052061
20775438 99 17541141629904334799
21315764 21 16914557690096640110
23559900 14 18337393729929026984
23728640 28 18264485255492992458
238 59 16823097739896214030
3027735 51 18042697271633303822
3178227 256 18267283504661003737
3298306 158 17617375525507518204
3729539 64 18128836294187825607
3882209 13 17758433715130208306
508706 21 18117549842057981518

> <PUBCHEM_SHAPE_MULTIPOLES>
596.88
7.69
4.98
1.91
8.35
-2.84
-2.03
0.43
-12.45
-0.6
-5.2
-1.5
10.34
-10

> <PUBCHEM_SHAPE_SELFOVERLAP>
1342.468

> <PUBCHEM_SHAPE_VOLUME>
314.7

> <PUBCHEM_COORDINATE_TYPE>
2
5
255

$$$$

