59730
  -OEChem-10021002513D

 30 33  0     0  0  0  0  0  0999 V2000
    2.4192    2.1562    0.4782 O   0  0  0  0  0  0  0  0  0  0  0  0
    4.8271    1.4110   -0.3539 O   0  0  0  0  0  0  0  0  0  0  0  0
    0.0798    0.3375    0.0104 C   0  0  0  0  0  0  0  0  0  0  0  0
   -0.9029   -0.6967    0.0152 C   0  0  0  0  0  0  0  0  0  0  0  0
    1.4697   -0.0158    0.0491 C   0  0  0  0  0  0  0  0  0  0  0  0
   -2.3123   -0.3763   -0.0029 C   0  0  0  0  0  0  0  0  0  0  0  0
    1.8810   -1.3591    0.0368 C   0  0  0  0  0  0  0  0  0  0  0  0
   -2.7140    0.9796   -0.0475 C   0  0  0  0  0  0  0  0  0  0  0  0
   -0.4396   -2.0313    0.0317 C   0  0  0  0  0  0  0  0  0  0  0  0
   -0.3919    1.6659   -0.0535 C   0  0  0  0  0  0  0  0  0  0  0  0
    0.9151   -2.3584    0.0326 C   0  0  0  0  0  0  0  0  0  0  0  0
   -1.7492    1.9801   -0.0780 C   0  0  0  0  0  0  0  0  0  0  0  0
    2.5673    0.9916    0.1447 C   0  0  0  0  0  0  0  0  0  0  0  0
   -3.3594   -1.3360    0.0189 C   0  0  0  0  0  0  0  0  0  0  0  0
    3.2925   -1.7548    0.0257 C   0  0  0  0  0  0  0  0  0  0  0  0
   -4.0747    1.3337   -0.0683 C   0  0  0  0  0  0  0  0  0  0  0  0
    3.9809    0.5605   -0.1248 C   0  0  0  0  0  0  0  0  0  0  0  0
    4.2902   -0.8736   -0.0682 C   0  0  0  0  0  0  0  0  0  0  0  0
   -4.7103   -0.9755   -0.0011 C   0  0  0  0  0  0  0  0  0  0  0  0
   -5.0683    0.3616   -0.0448 C   0  0  0  0  0  0  0  0  0  0  0  0
   -1.1309   -2.8700    0.0319 H   0  0  0  0  0  0  0  0  0  0  0  0
    0.2846    2.5122   -0.1064 H   0  0  0  0  0  0  0  0  0  0  0  0
    1.1963   -3.4095    0.0307 H   0  0  0  0  0  0  0  0  0  0  0  0
   -2.0360    3.0292   -0.1256 H   0  0  0  0  0  0  0  0  0  0  0  0
   -3.1468   -2.4012    0.0547 H   0  0  0  0  0  0  0  0  0  0  0  0
    3.5247   -2.8150    0.0650 H   0  0  0  0  0  0  0  0  0  0  0  0
   -4.3738    2.3798   -0.1038 H   0  0  0  0  0  0  0  0  0  0  0  0
    5.3266   -1.1852   -0.1133 H   0  0  0  0  0  0  0  0  0  0  0  0
   -5.4767   -1.7449    0.0177 H   0  0  0  0  0  0  0  0  0  0  0  0
   -6.1151    0.6490   -0.0610 H   0  0  0  0  0  0  0  0  0  0  0  0
  1 13  2  0  0  0  0
  2 17  2  0  0  0  0
  3  4  2  0  0  0  0
  3  5  1  0  0  0  0
  3 10  1  0  0  0  0
  4  6  1  0  0  0  0
  4  9  1  0  0  0  0
  5  7  2  0  0  0  0
  5 13  1  0  0  0  0
  6  8  1  0  0  0  0
  6 14  2  0  0  0  0
  7 11  1  0  0  0  0
  7 15  1  0  0  0  0
  8 12  1  0  0  0  0
  8 16  2  0  0  0  0
  9 11  2  0  0  0  0
  9 21  1  0  0  0  0
 10 12  2  0  0  0  0
 10 22  1  0  0  0  0
 11 23  1  0  0  0  0
 12 24  1  0  0  0  0
 13 17  1  0  0  0  0
 14 19  1  0  0  0  0
 14 25  1  0  0  0  0
 15 18  2  0  0  0  0
 15 26  1  0  0  0  0
 16 20  1  0  0  0  0
 16 27  1  0  0  0  0
 17 18  1  0  0  0  0
 18 28  1  0  0  0  0
 19 20  2  0  0  0  0
 19 29  1  0  0  0  0
 20 30  1  0  0  0  0
M  END
> <PUBCHEM_COMPOUND_CID>
59730

> <PUBCHEM_CONFORMER_RMSD>
0.6

> <PUBCHEM_CONFORMER_DIVERSEORDER>
1

> <PUBCHEM_MMFF94_PARTIAL_CHARGES>
26
1 -0.57
10 -0.15
11 -0.15
12 -0.15
13 0.48
14 -0.15
15 -0.18
16 -0.15
17 0.56
18 -0.14
19 -0.15
2 -0.57
20 -0.15
21 0.15
22 0.15
23 0.15
24 0.15
25 0.15
26 0.15
27 0.15
28 0.15
29 0.15
30 0.15
5 0.09
7 0.03
9 -0.15

> <PUBCHEM_EFFECTIVE_ROTOR_COUNT>
0

> <PUBCHEM_PHARMACOPHORE_FEATURES>
6
1 1 acceptor
1 2 acceptor
6 3 4 5 7 9 11 rings
6 3 4 6 8 10 12 rings
6 5 7 13 15 17 18 rings
6 6 8 14 16 19 20 rings

> <PUBCHEM_HEAVY_ATOM_COUNT>
20

> <PUBCHEM_ATOM_DEF_STEREO_COUNT>
0

> <PUBCHEM_ATOM_UDEF_STEREO_COUNT>
0

> <PUBCHEM_BOND_DEF_STEREO_COUNT>
0

> <PUBCHEM_BOND_UDEF_STEREO_COUNT>
0

> <PUBCHEM_ISOTOPIC_ATOM_COUNT>
0

> <PUBCHEM_COMPONENT_COUNT>
1

> <PUBCHEM_CACTVS_TAUTO_COUNT>
1

> <PUBCHEM_CONFORMER_ID>
0000E95200000001

> <PUBCHEM_MMFF94_ENERGY>
69.1968

> <PUBCHEM_FEATURE_SELFOVERLAP>
30.52

> <PUBCHEM_SHAPE_FINGERPRINT>
10411042 1 17689998259611370154
10498660 4 18341613749765935429
10608611 8 18340209695219012933
10616163 171 18409446947463812807
10967382 1 18410575084673634938
11471102 20 18410014355334460678
11578080 2 16662628536349727618
12011746 2 18411695487433808644
12107183 9 17690279734629149249
12403259 226 18339930423497423004
12403259 415 18413113869933991228
13140716 1 18267313040697059914
13224815 77 18412545426927894515
138480 1 17762338419494740043
13862211 1 18410862065888557547
14178342 30 17904494248142928330
14787075 74 18410857633693031867
14790565 3 18410566267153846645
15196674 1 18411136956579715431
15536298 74 18335421283087648174
16945 1 18122629624036515275
17492 89 18339361993124203115
1813 80 17203887474496044349
19591789 44 18409731729327892975
200 152 18113622287611800681
20510252 161 18334574663455809961
20645477 70 18334857259408584734
21267235 1 18410284847974605687
21421861 104 17843124963509823899
21652331 79 18411982468194673597
221490 88 18339354274940884410
23227448 37 18334297517758829902
23366157 5 17986949850567557450
23402539 116 18335427837186701679
23402655 69 18334013895298126647
23559900 14 18120661485201328914
2748010 2 18411702071259990023
2871803 45 18341617044269432959
3004659 81 18343014532950829710
335352 9 18338517576572171471
34934 24 18411705413451460511
350125 39 18411982494513220428
3545911 37 18411698785599549981
4214541 1 18410293657395492009
4409770 3 16114595025959390150
474 4 17632007555777784884
474229 33 18411138017505443206
495365 180 17386014910364671386
4990 188 18040709290427829190
5104073 3 18411138064718208523
69090 78 18408044004622356167
7364860 26 18263925604169549230
77779 3 18410574011116459735
9709674 26 18410287042829708911

> <PUBCHEM_SHAPE_MULTIPOLES>
399.85
9.44
2.37
0.62
0.96
-0.81
-0.35
0.53
-0.64
0.46
-0.9
0.18
2.85
-2.27

> <PUBCHEM_SHAPE_SELFOVERLAP>
917.491

> <PUBCHEM_SHAPE_VOLUME>
205.1

> <PUBCHEM_COORDINATE_TYPE>
2
5
255

$$$$

