44459239
  -OEChem-10021005362D

143145  0     1  0  0  0  0  0999 V2000
   14.3871    7.0055    0.0000 S   0  0  0  0  0  0  0  0  0  0  0  0
    6.7607   -1.6556    0.0000 O   0  0  0  0  0  0  0  0  0  0  0  0
    3.6626   -1.2896    0.0000 O   0  0  0  0  0  0  0  0  0  0  0  0
    7.1268   -0.2896    0.0000 O   0  0  0  0  0  0  0  0  0  0  0  0
    6.2617    1.0932    0.0000 O   0  0  0  0  0  0  0  0  0  0  0  0
    8.9928    0.6745    0.0000 O   0  0  0  0  0  0  0  0  0  0  0  0
    9.4928   -3.6556    0.0000 O   0  0  0  0  0  0  0  0  0  0  0  0
    7.5268    3.7312    0.0000 O   0  0  0  0  0  0  0  0  0  0  0  0
   10.4928   -0.1916    0.0000 O   0  0  0  0  0  0  0  0  0  0  0  0
    7.9862    4.3542    0.0000 O   0  0  0  0  0  0  0  0  0  0  0  0
    8.3210   -7.3604    0.0000 O   0  0  0  0  0  0  0  0  0  0  0  0
   10.8040    6.6037    0.0000 O   0  0  0  0  0  0  0  0  0  0  0  0
   12.5608    4.6254    0.0000 O   0  0  0  0  0  0  0  0  0  0  0  0
   13.7783    6.2121    0.0000 O   0  0  0  0  0  0  0  0  0  0  0  0
   14.9958    7.7988    0.0000 O   0  5  0  0  0  0  0  0  0  0  0  0
   15.1804    6.3967    0.0000 O   0  0  0  0  0  0  0  0  0  0  0  0
   13.5937    7.6142    0.0000 O   0  0  0  0  0  0  0  0  0  0  0  0
    5.3947   -1.2896    0.0000 N   0  0  0  0  0  0  0  0  0  0  0  0
    4.5287    1.2104    0.0000 N   0  0  0  0  0  0  0  0  0  0  0  0
    7.9928   -1.7896    0.0000 N   0  0  0  0  0  0  0  0  0  0  0  0
    7.0786    2.0581    0.0000 N   0  0  0  0  0  0  0  0  0  0  0  0
    9.4928   -1.9236    0.0000 N   0  0  0  0  0  0  0  0  0  0  0  0
    9.3604    3.2998    0.0000 N   0  0  0  0  0  0  0  0  0  0  0  0
   10.5779    4.8865    0.0000 N   0  0  0  0  0  0  0  0  0  0  0  0
    3.6632    4.7664    0.0000 N   0  0  0  0  0  0  0  0  0  0  0  0
    2.4384    5.9912    0.0000 N   0  0  0  0  0  0  0  0  0  0  0  0
    4.1114    6.4395    0.0000 N   0  0  0  0  0  0  0  0  0  0  0  0
    6.2607   -1.7896    0.0000 C   0  0  1  0  0  0  0  0  0  0  0  0
    6.2607   -0.7896    0.0000 C   0  0  2  0  0  0  0  0  0  0  0  0
    4.5287    0.2104    0.0000 C   0  0  1  0  0  0  0  0  0  0  0  0
    6.2607    0.2104    0.0000 C   0  0  0  0  0  0  0  0  0  0  0  0
    5.3947    0.7104    0.0000 C   0  0  0  0  0  0  0  0  0  0  0  0
    6.2607   -2.7896    0.0000 C   0  0  0  0  0  0  0  0  0  0  0  0
    4.5287   -0.7896    0.0000 C   0  0  0  0  0  0  0  0  0  0  0  0
    5.3947   -3.2896    0.0000 C   0  0  0  0  0  0  0  0  0  0  0  0
    7.1268   -1.2896    0.0000 C   0  0  0  0  0  0  0  0  0  0  0  0
    7.9928   -2.7896    0.0000 C   0  0  2  0  0  0  0  0  0  0  0  0
    5.3947   -4.2896    0.0000 C   0  0  0  0  0  0  0  0  0  0  0  0
    4.5287   -2.7896    0.0000 C   0  0  0  0  0  0  0  0  0  0  0  0
    5.4055    1.6098    0.0000 C   0  0  0  0  0  0  0  0  0  0  0  0
    6.1126    2.3170    0.0000 C   0  0  2  0  0  0  0  0  0  0  0  0
    7.2857   -3.4967    0.0000 C   0  0  0  0  0  0  0  0  0  0  0  0
    8.9325   -2.1316    0.0000 C   0  0  0  0  0  0  0  0  0  0  0  0
    8.9928   -2.7896    0.0000 C   0  0  0  0  0  0  0  0  0  0  0  0
    5.8538    3.2829    0.0000 C   0  0  0  0  0  0  0  0  0  0  0  0
    8.9928   -1.0576    0.0000 C   0  0  2  0  0  0  0  0  0  0  0  0
    8.7516    2.5064    0.0000 C   0  0  2  0  0  0  0  0  0  0  0  0
    4.8879    3.5417    0.0000 C   0  0  0  0  0  0  0  0  0  0  0  0
    7.5445   -4.4627    0.0000 C   0  0  0  0  0  0  0  0  0  0  0  0
    7.9928   -1.0576    0.0000 C   0  0  0  0  0  0  0  0  0  0  0  0
    7.7857    2.7652    0.0000 C   0  0  0  0  0  0  0  0  0  0  0  0
    9.2516    1.6404    0.0000 C   0  0  1  0  0  0  0  0  0  0  0  0
    9.4928   -0.1916    0.0000 C   0  0  0  0  0  0  0  0  0  0  0  0
    4.6291    4.5076    0.0000 C   0  0  0  0  0  0  0  0  0  0  0  0
    7.4928   -1.9236    0.0000 C   0  0  0  0  0  0  0  0  0  0  0  0
    7.9928   -0.0576    0.0000 C   0  0  0  0  0  0  0  0  0  0  0  0
    8.5104   -4.7215    0.0000 C   0  0  0  0  0  0  0  0  0  0  0  0
    6.8374   -5.1698    0.0000 C   0  0  0  0  0  0  0  0  0  0  0  0
    9.5864    5.0170    0.0000 C   0  0  1  0  0  0  0  0  0  0  0  0
   10.2430    1.7709    0.0000 C   0  0  0  0  0  0  0  0  0  0  0  0
    8.9777    4.2237    0.0000 C   0  0  0  0  0  0  0  0  0  0  0  0
    9.2038    5.9409    0.0000 C   0  0  0  0  0  0  0  0  0  0  0  0
    8.2123    6.0714    0.0000 C   0  0  0  0  0  0  0  0  0  0  0  0
    8.7692   -5.6874    0.0000 C   0  0  0  0  0  0  0  0  0  0  0  0
    7.0962   -6.1357    0.0000 C   0  0  0  0  0  0  0  0  0  0  0  0
    8.0621   -6.3945    0.0000 C   0  0  0  0  0  0  0  0  0  0  0  0
    7.8296    6.9953    0.0000 C   0  0  0  0  0  0  0  0  0  0  0  0
    7.6036    5.2781    0.0000 C   0  0  0  0  0  0  0  0  0  0  0  0
   11.1866    5.6798    0.0000 C   0  0  0  0  0  0  0  0  0  0  0  0
    3.4043    5.7324    0.0000 C   0  0  0  0  0  0  0  0  0  0  0  0
   12.1781    5.5493    0.0000 C   0  0  1  0  0  0  0  0  0  0  0  0
   12.7869    6.3427    0.0000 C   0  0  0  0  0  0  0  0  0  0  0  0
    5.7238   -2.0996    0.0000 H   0  0  0  0  0  0  0  0  0  0  0  0
    6.8596   -0.6292    0.0000 H   0  0  0  0  0  0  0  0  0  0  0  0
    3.6787    0.2104    0.0000 H   0  0  0  0  0  0  0  0  0  0  0  0
    6.8713    0.1027    0.0000 H   0  0  0  0  0  0  0  0  0  0  0  0
    6.4728    0.7930    0.0000 H   0  0  0  0  0  0  0  0  0  0  0  0
    5.7932    1.1853    0.0000 H   0  0  0  0  0  0  0  0  0  0  0  0
    4.9962    1.1853    0.0000 H   0  0  0  0  0  0  0  0  0  0  0  0
    6.4728   -3.3722    0.0000 H   0  0  0  0  0  0  0  0  0  0  0  0
    6.8713   -2.6820    0.0000 H   0  0  0  0  0  0  0  0  0  0  0  0
    5.3947   -2.6696    0.0000 H   0  0  0  0  0  0  0  0  0  0  0  0
    4.0171    1.5607    0.0000 H   0  0  0  0  0  0  0  0  0  0  0  0
    7.4200   -2.5524    0.0000 H   0  0  0  0  0  0  0  0  0  0  0  0
    4.8387   -2.2527    0.0000 H   0  0  0  0  0  0  0  0  0  0  0  0
    3.9917   -2.4796    0.0000 H   0  0  0  0  0  0  0  0  0  0  0  0
    4.2187   -3.3266    0.0000 H   0  0  0  0  0  0  0  0  0  0  0  0
    4.7747   -4.2896    0.0000 H   0  0  0  0  0  0  0  0  0  0  0  0
    5.3947   -4.9096    0.0000 H   0  0  0  0  0  0  0  0  0  0  0  0
    6.0147   -4.2896    0.0000 H   0  0  0  0  0  0  0  0  0  0  0  0
    6.7608   -2.2756    0.0000 H   0  0  0  0  0  0  0  0  0  0  0  0
    6.5510    2.7554    0.0000 H   0  0  0  0  0  0  0  0  0  0  0  0
    6.9301   -2.9889    0.0000 H   0  0  0  0  0  0  0  0  0  0  0  0
    6.7238   -3.7588    0.0000 H   0  0  0  0  0  0  0  0  0  0  0  0
    8.7204   -2.7143    0.0000 H   0  0  0  0  0  0  0  0  0  0  0  0
    9.5151   -2.3437    0.0000 H   0  0  0  0  0  0  0  0  0  0  0  0
    9.1445   -1.5490    0.0000 H   0  0  0  0  0  0  0  0  0  0  0  0
    6.4715    3.3369    0.0000 H   0  0  0  0  0  0  0  0  0  0  0  0
    5.9079    3.9005    0.0000 H   0  0  0  0  0  0  0  0  0  0  0  0
    7.2390    1.4593    0.0000 H   0  0  0  0  0  0  0  0  0  0  0  0
    8.6828   -1.5945    0.0000 H   0  0  0  0  0  0  0  0  0  0  0  0
   10.1128   -1.9236    0.0000 H   0  0  0  0  0  0  0  0  0  0  0  0
    8.5523    3.0935    0.0000 H   0  0  0  0  0  0  0  0  0  0  0  0
    4.2703    3.4877    0.0000 H   0  0  0  0  0  0  0  0  0  0  0  0
    4.8339    2.9241    0.0000 H   0  0  0  0  0  0  0  0  0  0  0  0
    7.3939   -0.8971    0.0000 H   0  0  0  0  0  0  0  0  0  0  0  0
    9.6604    1.1743    0.0000 H   0  0  0  0  0  0  0  0  0  0  0  0
    9.9751    3.2189    0.0000 H   0  0  0  0  0  0  0  0  0  0  0  0
    5.2467    4.5617    0.0000 H   0  0  0  0  0  0  0  0  0  0  0  0
    4.6831    5.1253    0.0000 H   0  0  0  0  0  0  0  0  0  0  0  0
    6.9558   -1.6136    0.0000 H   0  0  0  0  0  0  0  0  0  0  0  0
    7.1828   -2.4605    0.0000 H   0  0  0  0  0  0  0  0  0  0  0  0
    8.0297   -2.2336    0.0000 H   0  0  0  0  0  0  0  0  0  0  0  0
    8.6128   -0.0576    0.0000 H   0  0  0  0  0  0  0  0  0  0  0  0
    7.9928    0.5624    0.0000 H   0  0  0  0  0  0  0  0  0  0  0  0
    7.3728   -0.0576    0.0000 H   0  0  0  0  0  0  0  0  0  0  0  0
    9.8237    4.4442    0.0000 H   0  0  0  0  0  0  0  0  0  0  0  0
    8.9488   -4.2831    0.0000 H   0  0  0  0  0  0  0  0  0  0  0  0
    6.2385   -5.0093    0.0000 H   0  0  0  0  0  0  0  0  0  0  0  0
   10.3240    1.1562    0.0000 H   0  0  0  0  0  0  0  0  0  0  0  0
   10.8577    1.8518    0.0000 H   0  0  0  0  0  0  0  0  0  0  0  0
   10.1621    2.3856    0.0000 H   0  0  0  0  0  0  0  0  0  0  0  0
    9.8091    6.0751    0.0000 H   0  0  0  0  0  0  0  0  0  0  0  0
    9.1767    6.5603    0.0000 H   0  0  0  0  0  0  0  0  0  0  0  0
    8.4496    5.4986    0.0000 H   0  0  0  0  0  0  0  0  0  0  0  0
    9.3681   -5.8479    0.0000 H   0  0  0  0  0  0  0  0  0  0  0  0
    6.6578   -6.5741    0.0000 H   0  0  0  0  0  0  0  0  0  0  0  0
   10.8151    4.3137    0.0000 H   0  0  0  0  0  0  0  0  0  0  0  0
    8.4024    7.2326    0.0000 H   0  0  0  0  0  0  0  0  0  0  0  0
    7.5924    7.5681    0.0000 H   0  0  0  0  0  0  0  0  0  0  0  0
    7.2568    6.7580    0.0000 H   0  0  0  0  0  0  0  0  0  0  0  0
    7.1117    5.6555    0.0000 H   0  0  0  0  0  0  0  0  0  0  0  0
    7.2261    4.7862    0.0000 H   0  0  0  0  0  0  0  0  0  0  0  0
    8.0954    4.9006    0.0000 H   0  0  0  0  0  0  0  0  0  0  0  0
   12.7928    5.4684    0.0000 H   0  0  0  0  0  0  0  0  0  0  0  0
    7.8825   -7.7988    0.0000 H   0  0  0  0  0  0  0  0  0  0  0  0
   12.9733    6.9340    0.0000 H   0  0  0  0  0  0  0  0  0  0  0  0
   12.2369    6.6290    0.0000 H   0  0  0  0  0  0  0  0  0  0  0  0
    2.2779    6.5901    0.0000 H   0  0  0  0  0  0  0  0  0  0  0  0
    2.0000    5.5528    0.0000 H   0  0  0  0  0  0  0  0  0  0  0  0
    3.9510    7.0384    0.0000 H   0  0  0  0  0  0  0  0  0  0  0  0
    4.7103    6.2790    0.0000 H   0  0  0  0  0  0  0  0  0  0  0  0
   13.1755    4.5445    0.0000 H   0  0  0  0  0  0  0  0  0  0  0  0
  1 14  1  0  0  0  0
  1 15  1  0  0  0  0
  1 16  2  0  0  0  0
  1 17  2  0  0  0  0
 29  2  1  6  0  0  0
  2 91  1  0  0  0  0
  3 34  2  0  0  0  0
  4 36  2  0  0  0  0
  5 40  2  0  0  0  0
  6 52  1  0  0  0  0
  6 53  1  0  0  0  0
  7 44  2  0  0  0  0
  8 51  2  0  0  0  0
  9 53  2  0  0  0  0
 10 61  2  0  0  0  0
 11 66  1  0  0  0  0
 11136  1  0  0  0  0
 12 69  2  0  0  0  0
 71 13  1  1  0  0  0
 13143  1  0  0  0  0
 14 72  1  0  0  0  0
 18 28  1  0  0  0  0
 18 29  1  0  0  0  0
 18 34  1  0  0  0  0
 19 30  1  0  0  0  0
 19 40  1  0  0  0  0
 19 83  1  0  0  0  0
 20 36  1  0  0  0  0
 20 37  1  0  0  0  0
 20 43  1  0  0  0  0
 21 41  1  0  0  0  0
 21 51  1  0  0  0  0
 21100  1  0  0  0  0
 22 44  1  0  0  0  0
 22 46  1  0  0  0  0
 22102  1  0  0  0  0
 47 23  1  1  0  0  0
 23 61  1  0  0  0  0
 23108  1  0  0  0  0
 59 24  1  1  0  0  0
 24 69  1  0  0  0  0
 24128  1  0  0  0  0
 25 54  1  0  0  0  0
 25 70  2  0  0  0  0
 26 70  1  0  0  0  0
 26139  1  0  0  0  0
 26140  1  0  0  0  0
 27 70  1  0  0  0  0
 27141  1  0  0  0  0
 27142  1  0  0  0  0
 28 33  1  6  0  0  0
 28 36  1  0  0  0  0
 28 73  1  0  0  0  0
 29 31  1  0  0  0  0
 29 74  1  0  0  0  0
 30 32  1  0  0  0  0
 30 34  1  0  0  0  0
 30 75  1  6  0  0  0
 31 32  1  0  0  0  0
 31 76  1  0  0  0  0
 31 77  1  0  0  0  0
 32 78  1  0  0  0  0
 32 79  1  0  0  0  0
 33 35  1  0  0  0  0
 33 80  1  0  0  0  0
 33 81  1  0  0  0  0
 35 38  1  0  0  0  0
 35 39  1  0  0  0  0
 35 82  1  0  0  0  0
 37 42  1  1  0  0  0
 37 44  1  0  0  0  0
 37 84  1  0  0  0  0
 38 88  1  0  0  0  0
 38 89  1  0  0  0  0
 38 90  1  0  0  0  0
 39 85  1  0  0  0  0
 39 86  1  0  0  0  0
 39 87  1  0  0  0  0
 40 41  1  0  0  0  0
 41 45  1  6  0  0  0
 41 92  1  0  0  0  0
 42 49  1  0  0  0  0
 42 93  1  0  0  0  0
 42 94  1  0  0  0  0
 43 95  1  0  0  0  0
 43 96  1  0  0  0  0
 43 97  1  0  0  0  0
 45 48  1  0  0  0  0
 45 98  1  0  0  0  0
 45 99  1  0  0  0  0
 46 50  1  6  0  0  0
 46 53  1  0  0  0  0
 46101  1  0  0  0  0
 47 51  1  0  0  0  0
 47 52  1  0  0  0  0
 47103  1  0  0  0  0
 48 54  1  0  0  0  0
 48104  1  0  0  0  0
 48105  1  0  0  0  0
 49 57  2  0  0  0  0
 49 58  1  0  0  0  0
 50 55  1  0  0  0  0
 50 56  1  0  0  0  0
 50106  1  0  0  0  0
 52 60  1  1  0  0  0
 52107  1  0  0  0  0
 54109  1  0  0  0  0
 54110  1  0  0  0  0
 55111  1  0  0  0  0
 55112  1  0  0  0  0
 55113  1  0  0  0  0
 56114  1  0  0  0  0
 56115  1  0  0  0  0
 56116  1  0  0  0  0
 57 64  1  0  0  0  0
 57118  1  0  0  0  0
 58 65  2  0  0  0  0
 58119  1  0  0  0  0
 59 61  1  0  0  0  0
 59 62  1  0  0  0  0
 59117  1  0  0  0  0
 60120  1  0  0  0  0
 60121  1  0  0  0  0
 60122  1  0  0  0  0
 62 63  1  0  0  0  0
 62123  1  0  0  0  0
 62124  1  0  0  0  0
 63 67  1  0  0  0  0
 63 68  1  0  0  0  0
 63125  1  0  0  0  0
 64 66  2  0  0  0  0
 64126  1  0  0  0  0
 65 66  1  0  0  0  0
 65127  1  0  0  0  0
 67129  1  0  0  0  0
 67130  1  0  0  0  0
 67131  1  0  0  0  0
 68132  1  0  0  0  0
 68133  1  0  0  0  0
 68134  1  0  0  0  0
 69 71  1  0  0  0  0
 71 72  1  0  0  0  0
 71135  1  0  0  0  0
 72137  1  0  0  0  0
 72138  1  0  0  0  0
M  CHG  1  15  -1
M  END
> <PUBCHEM_COMPOUND_CID>
44459239

> <PUBCHEM_COMPOUND_CANONICALIZED>
1

> <PUBCHEM_CACTVS_COMPLEXITY>
2030

> <PUBCHEM_CACTVS_HBOND_ACCEPTOR>
19

> <PUBCHEM_CACTVS_HBOND_DONOR>
10

> <PUBCHEM_CACTVS_ROTATABLE_BOND>
17

> <PUBCHEM_CACTVS_SUBSKEYS>
AAADcfB//gBAAAAAAAAAAAAAAAAAAAAAAAA8QAAAAAAAAAABAAAAHgAQCAAADTzhmAYzDoPABgCoAiHSPDICAAEgIAAIiIHOCIgLdjaCkTOXcAAm9hGZmAe43aKOIAAAAAAAAABAAAAAAAAAAAAAAAAAAA==

> <PUBCHEM_IUPAC_OPENEYE_NAME>
[(2R)-3-[[(1R)-1-[[(2S,5R,8R,11R,12S,15S,18S,21S)-15-(3-guanidinopropyl)-21-hydroxy-5-[(4-hydroxyphenyl)methyl]-2-isobutyl-8-isopropyl-4,11-dimethyl-3,6,9,13,16,22-hexaoxo-10-oxa-1,4,7,14,17-pentazabicyclo[16.3.1]docosan-12-yl]carbamoyl]-3-methyl-butyl]amino]-2-hydroxy-3-oxo-propyl] sulfate

> <PUBCHEM_IUPAC_CAS_NAME>
[(2R)-3-[[(2R)-1-[[(2S,5R,8R,11R,12S,15S,18S,21S)-15-[3-(diaminomethylideneamino)propyl]-21-hydroxy-5-[(4-hydroxyphenyl)methyl]-4,11-dimethyl-2-(2-methylpropyl)-3,6,9,13,16,22-hexaoxo-8-propan-2-yl-10-oxa-1,4,7,14,17-pentazabicyclo[16.3.1]docosan-12-yl]amino]-4-methyl-1-oxopentan-2-yl]amino]-2-hydroxy-3-oxopropyl] sulfate

> <PUBCHEM_IUPAC_NAME>
[(2R)-3-[[(2R)-1-[[(2S,5R,8R,11R,12S,15S,18S,21S)-15-[3-(diaminomethylideneamino)propyl]-21-hydroxy-5-[(4-hydroxyphenyl)methyl]-4,11-dimethyl-2-(2-methylpropyl)-3,6,9,13,16,22-hexaoxo-8-propan-2-yl-10-oxa-1,4,7,14,17-pentazabicyclo[16.3.1]docosan-12-yl]amino]-4-methyl-1-oxopentan-2-yl]amino]-2-hydroxy-3-oxopropyl] sulfate

> <PUBCHEM_IUPAC_SYSTEMATIC_NAME>
[(2R)-3-[[(2R)-1-[[(2S,5R,8R,11R,12S,15S,18S,21S)-15-[3-[bis(azanyl)methylideneamino]propyl]-5-[(4-hydroxyphenyl)methyl]-4,11-dimethyl-2-(2-methylpropyl)-21-oxidanyl-3,6,9,13,16,22-hexakis(oxidanylidene)-8-propan-2-yl-10-oxa-1,4,7,14,17-pentazabicyclo[16.3.1]docosan-12-yl]amino]-4-methyl-1-oxidanylidene-pentan-2-yl]amino]-2-oxidanyl-3-oxidanylidene-propyl] sulfate

> <PUBCHEM_IUPAC_TRADITIONAL_NAME>
[(2R)-3-[[(1R)-1-[[(2S,5R,8R,11R,12S,15S,18S,21S)-15-(3-guanidinopropyl)-21-hydroxy-5-(4-hydroxybenzyl)-2-isobutyl-8-isopropyl-3,6,9,13,16,22-hexaketo-4,11-dimethyl-10-oxa-1,4,7,14,17-pentazabicyclo[16.3.1]docosan-12-yl]carbamoyl]-3-methyl-butyl]amino]-2-hydroxy-3-keto-propyl] sulfate

> <PUBCHEM_NIST_INCHI>
InChI=1S/C45H72N10O16S/c1-22(2)18-30(51-40(62)33(57)21-70-72(67,68)69)38(60)53-36-25(7)71-44(66)35(24(5)6)52-39(61)31(20-26-11-13-27(56)14-12-26)54(8)43(65)32(19-23(3)4)55-34(58)16-15-29(42(55)64)50-37(59)28(49-41(36)63)10-9-17-48-45(46)47/h11-14,22-25,28-36,56-58H,9-10,15-21H2,1-8H3,(H,49,63)(H,50,59)(H,51,62)(H,52,61)(H,53,60)(H4,46,47,48)(H,67,68,69)/p-1/t25-,28+,29+,30-,31-,32+,33-,34+,35-,36+/m1/s1

> <PUBCHEM_NIST_INCHIKEY>
VVBXXVAFSPEIJQ-CVIPOMFBSA-M

> <PUBCHEM_XLOGP3_AA>
0

> <PUBCHEM_EXACT_MASS>
1039.477022

> <PUBCHEM_MOLECULAR_FORMULA>
C45H71N10O16S-

> <PUBCHEM_MOLECULAR_WEIGHT>
1040.16764

> <PUBCHEM_OPENEYE_CAN_SMILES>
CC1C(C(=O)NC(C(=O)NC2CCC(N(C2=O)C(C(=O)N(C(C(=O)NC(C(=O)O1)C(C)C)CC3=CC=C(C=C3)O)C)CC(C)C)O)CCCN=C(N)N)NC(=O)C(CC(C)C)NC(=O)C(COS(=O)(=O)[O-])O

> <PUBCHEM_OPENEYE_ISO_SMILES>
C[C@@H]1[C@@H](C(=O)N[C@H](C(=O)N[C@H]2CC[C@@H](N(C2=O)[C@H](C(=O)N([C@@H](C(=O)N[C@@H](C(=O)O1)C(C)C)CC3=CC=C(C=C3)O)C)CC(C)C)O)CCCN=C(N)N)NC(=O)[C@@H](CC(C)C)NC(=O)[C@@H](COS(=O)(=O)[O-])O

> <PUBCHEM_CACTVS_TPSA>
412

> <PUBCHEM_MONOISOTOPIC_WEIGHT>
1039.477022

> <PUBCHEM_TOTAL_CHARGE>
-1

> <PUBCHEM_HEAVY_ATOM_COUNT>
72

> <PUBCHEM_ATOM_DEF_STEREO_COUNT>
10

> <PUBCHEM_ATOM_UDEF_STEREO_COUNT>
0

> <PUBCHEM_BOND_DEF_STEREO_COUNT>
0

> <PUBCHEM_BOND_UDEF_STEREO_COUNT>
0

> <PUBCHEM_ISOTOPIC_ATOM_COUNT>
0

> <PUBCHEM_COMPONENT_COUNT>
1

> <PUBCHEM_CACTVS_TAUTO_COUNT>
1001

> <PUBCHEM_COORDINATE_TYPE>
1
3

> <PUBCHEM_BONDANNOTATIONS>
71  13  5
29  2  6
47  23  5
59  24  5
28  33  6
30  75  6
37  42  5
41  45  6
46  50  6
49  57  8
49  58  8
52  60  5
57  64  8
58  65  8
64  66  8
65  66  8

$$$$

