439171
  -OEChem-10021002512D

111114  0     1  0  0  0  0  0999 V2000
   10.7952    0.9671    0.0000 Fe  0  2  0  0  0  0  0  0  0  0  0  0
    6.2322    1.6870    0.0000 S   0  0  0  0  0  0  0  0  0  0  0  0
   10.1744   -3.5154    0.0000 S   0  0  0  0  0  0  0  0  0  0  0  0
   11.5853    7.2615    0.0000 O   0  0  0  0  0  0  0  0  0  0  0  0
   17.1495    1.9384    0.0000 O   0  0  0  0  0  0  0  0  0  0  0  0
   13.0017    6.2645    0.0000 O   0  0  0  0  0  0  0  0  0  0  0  0
   16.1006    3.3166    0.0000 O   0  0  0  0  0  0  0  0  0  0  0  0
    3.8446    3.5034    0.0000 O   0  0  0  0  0  0  0  0  0  0  0  0
    8.4085   -5.9406    0.0000 O   0  0  0  0  0  0  0  0  0  0  0  0
    9.4061    0.9934    0.0000 N   0  0  0  0  0  0  0  0  0  0  0  0
   10.8319   -0.3053    0.0000 N   0  5  0  0  0  0  0  0  0  0  0  0
   10.8001    2.2920    0.0000 N   0  5  0  0  0  0  0  0  0  0  0  0
   12.2559    0.9934    0.0000 N   0  0  0  0  0  0  0  0  0  0  0  0
    4.3876    0.9139    0.0000 N   0  0  0  0  0  0  0  0  0  0  0  0
   10.9860   -5.3433    0.0000 N   0  0  0  0  0  0  0  0  0  0  0  0
    2.7959    2.1249    0.0000 N   0  0  0  0  0  0  0  0  0  0  0  0
    9.8088   -6.9601    0.0000 N   0  0  0  0  0  0  0  0  0  0  0  0
    8.8680    1.7220    0.0000 C   0  0  0  0  0  0  0  0  0  0  0  0
   10.0713   -0.9071    0.0000 C   0  0  0  0  0  0  0  0  0  0  0  0
   11.5923    2.9255    0.0000 C   0  0  0  0  0  0  0  0  0  0  0  0
   12.7942    1.7538    0.0000 C   0  0  0  0  0  0  0  0  0  0  0  0
    8.8680    0.2646    0.0000 C   0  0  0  0  0  0  0  0  0  0  0  0
   11.5923   -0.8753    0.0000 C   0  0  0  0  0  0  0  0  0  0  0  0
   10.0396    2.8937    0.0000 C   0  0  0  0  0  0  0  0  0  0  0  0
   12.8259    0.2964    0.0000 C   0  0  0  0  0  0  0  0  0  0  0  0
    9.1537   -0.6213    0.0000 C   0  0  0  0  0  0  0  0  0  0  0  0
    7.9503    1.4680    0.0000 C   0  0  0  0  0  0  0  0  0  0  0  0
    9.1220    2.6397    0.0000 C   0  0  0  0  0  0  0  0  0  0  0  0
   10.3572   -1.7930    0.0000 C   0  0  0  0  0  0  0  0  0  0  0  0
   12.5100    2.6397    0.0000 C   0  0  0  0  0  0  0  0  0  0  0  0
   12.5417   -0.6213    0.0000 C   0  0  0  0  0  0  0  0  0  0  0  0
   11.2748    3.8114    0.0000 C   0  0  0  0  0  0  0  0  0  0  0  0
   13.7133    1.4998    0.0000 C   0  0  0  0  0  0  0  0  0  0  0  0
    7.9503    0.5187    0.0000 C   0  0  0  0  0  0  0  0  0  0  0  0
   11.3066   -1.7930    0.0000 C   0  0  0  0  0  0  0  0  0  0  0  0
   10.3254    3.8114    0.0000 C   0  0  0  0  0  0  0  0  0  0  0  0
   13.7133    0.5504    0.0000 C   0  0  0  0  0  0  0  0  0  0  0  0
    7.1545    2.0734    0.0000 C   0  0  3  0  0  0  0  0  0  0  0  0
    9.7686   -2.6014    0.0000 C   0  0  3  0  0  0  0  0  0  0  0  0
   11.8504    4.6291    0.0000 C   0  0  0  0  0  0  0  0  0  0  0  0
   14.5091    2.1054    0.0000 C   0  0  0  0  0  0  0  0  0  0  0  0
    7.1545   -0.0868    0.0000 C   0  0  0  0  0  0  0  0  0  0  0  0
   11.8066   -2.6590    0.0000 C   0  0  0  0  0  0  0  0  0  0  0  0
    9.7327    4.6168    0.0000 C   0  0  0  0  0  0  0  0  0  0  0  0
   14.5118   -0.0516    0.0000 C   0  0  0  0  0  0  0  0  0  0  0  0
   11.4301    5.5365    0.0000 C   0  0  0  0  0  0  0  0  0  0  0  0
   15.4314    1.7191    0.0000 C   0  0  0  0  0  0  0  0  0  0  0  0
    7.2809    3.0654    0.0000 C   0  0  0  0  0  0  0  0  0  0  0  0
    8.7741   -2.4958    0.0000 C   0  0  0  0  0  0  0  0  0  0  0  0
    5.4363    2.2924    0.0000 C   0  0  0  0  0  0  0  0  0  0  0  0
    9.5858   -4.3238    0.0000 C   0  0  0  0  0  0  0  0  0  0  0  0
   12.0057    6.3542    0.0000 C   0  0  0  0  0  0  0  0  0  0  0  0
   16.2272    2.3247    0.0000 C   0  0  0  0  0  0  0  0  0  0  0  0
    4.5140    1.9059    0.0000 C   0  0  3  0  0  0  0  0  0  0  0  0
    9.9916   -5.2377    0.0000 C   0  0  3  0  0  0  0  0  0  0  0  0
    3.7182    2.5114    0.0000 C   0  0  0  0  0  0  0  0  0  0  0  0
    9.4029   -6.0461    0.0000 C   0  0  0  0  0  0  0  0  0  0  0  0
    2.0000    2.7304    0.0000 C   0  0  0  0  0  0  0  0  0  0  0  0
    9.2201   -7.7685    0.0000 C   0  0  0  0  0  0  0  0  0  0  0  0
    8.7175   -1.0619    0.0000 H   0  0  0  0  0  0  0  0  0  0  0  0
    8.6836    3.0781    0.0000 H   0  0  0  0  0  0  0  0  0  0  0  0
   12.9465    3.0799    0.0000 H   0  0  0  0  0  0  0  0  0  0  0  0
   12.9715   -1.0681    0.0000 H   0  0  0  0  0  0  0  0  0  0  0  0
    6.4780    2.5881    0.0000 H   0  0  0  0  0  0  0  0  0  0  0  0
    9.2682   -3.2885    0.0000 H   0  0  0  0  0  0  0  0  0  0  0  0
   12.2877    4.1896    0.0000 H   0  0  0  0  0  0  0  0  0  0  0  0
   12.3592    4.9835    0.0000 H   0  0  0  0  0  0  0  0  0  0  0  0
   14.8443    2.6270    0.0000 H   0  0  0  0  0  0  0  0  0  0  0  0
   14.0536    2.5260    0.0000 H   0  0  0  0  0  0  0  0  0  0  0  0
    6.7791    0.4066    0.0000 H   0  0  0  0  0  0  0  0  0  0  0  0
    6.6610   -0.4622    0.0000 H   0  0  0  0  0  0  0  0  0  0  0  0
    7.5298   -0.5803    0.0000 H   0  0  0  0  0  0  0  0  0  0  0  0
   11.2697   -2.9690    0.0000 H   0  0  0  0  0  0  0  0  0  0  0  0
   12.1166   -3.1959    0.0000 H   0  0  0  0  0  0  0  0  0  0  0  0
   12.3435   -2.3490    0.0000 H   0  0  0  0  0  0  0  0  0  0  0  0
   10.2320    4.9843    0.0000 H   0  0  0  0  0  0  0  0  0  0  0  0
    9.3652    5.1162    0.0000 H   0  0  0  0  0  0  0  0  0  0  0  0
    9.2333    4.2493    0.0000 H   0  0  0  0  0  0  0  0  0  0  0  0
   14.1386   -0.5466    0.0000 H   0  0  0  0  0  0  0  0  0  0  0  0
   15.0069   -0.4248    0.0000 H   0  0  0  0  0  0  0  0  0  0  0  0
   14.8851    0.4435    0.0000 H   0  0  0  0  0  0  0  0  0  0  0  0
   10.9928    5.9760    0.0000 H   0  0  0  0  0  0  0  0  0  0  0  0
   10.9213    5.1821    0.0000 H   0  0  0  0  0  0  0  0  0  0  0  0
   15.0963    1.1975    0.0000 H   0  0  0  0  0  0  0  0  0  0  0  0
   15.8869    1.2984    0.0000 H   0  0  0  0  0  0  0  0  0  0  0  0
    7.8959    2.9870    0.0000 H   0  0  0  0  0  0  0  0  0  0  0  0
    7.3593    3.6804    0.0000 H   0  0  0  0  0  0  0  0  0  0  0  0
    6.6659    3.1438    0.0000 H   0  0  0  0  0  0  0  0  0  0  0  0
    8.8396   -1.8793    0.0000 H   0  0  0  0  0  0  0  0  0  0  0  0
    8.1576   -2.4304    0.0000 H   0  0  0  0  0  0  0  0  0  0  0  0
    8.7087   -3.1124    0.0000 H   0  0  0  0  0  0  0  0  0  0  0  0
    5.8917    2.7132    0.0000 H   0  0  0  0  0  0  0  0  0  0  0  0
    5.1010    2.8140    0.0000 H   0  0  0  0  0  0  0  0  0  0  0  0
    9.1555   -3.8773    0.0000 H   0  0  0  0  0  0  0  0  0  0  0  0
    9.0714   -4.6699    0.0000 H   0  0  0  0  0  0  0  0  0  0  0  0
    5.1905    1.3913    0.0000 H   0  0  0  0  0  0  0  0  0  0  0  0
   10.4919   -4.5506    0.0000 H   0  0  0  0  0  0  0  0  0  0  0  0
   11.9422    7.7685    0.0000 H   0  0  0  0  0  0  0  0  0  0  0  0
   17.6429    2.3139    0.0000 H   0  0  0  0  0  0  0  0  0  0  0  0
    3.8158    0.6743    0.0000 H   0  0  0  0  0  0  0  0  0  0  0  0
    4.8810    0.5386    0.0000 H   0  0  0  0  0  0  0  0  0  0  0  0
   11.2376   -5.9099    0.0000 H   0  0  0  0  0  0  0  0  0  0  0  0
   11.3509   -4.8421    0.0000 H   0  0  0  0  0  0  0  0  0  0  0  0
    2.7175    1.5099    0.0000 H   0  0  0  0  0  0  0  0  0  0  0  0
   10.4253   -7.0255    0.0000 H   0  0  0  0  0  0  0  0  0  0  0  0
    2.3754    3.2238    0.0000 H   0  0  0  0  0  0  0  0  0  0  0  0
    1.5066    3.1058    0.0000 H   0  0  0  0  0  0  0  0  0  0  0  0
    1.6246    2.2369    0.0000 H   0  0  0  0  0  0  0  0  0  0  0  0
    8.7189   -7.4036    0.0000 H   0  0  0  0  0  0  0  0  0  0  0  0
    8.8552   -8.2697    0.0000 H   0  0  0  0  0  0  0  0  0  0  0  0
    9.7213   -8.1335    0.0000 H   0  0  0  0  0  0  0  0  0  0  0  0
  2 38  1  0  0  0  0
  2 50  1  0  0  0  0
  3 39  1  0  0  0  0
  3 51  1  0  0  0  0
  4 52  1  0  0  0  0
  4 98  1  0  0  0  0
  5 53  1  0  0  0  0
  5 99  1  0  0  0  0
  6 52  2  0  0  0  0
  7 53  2  0  0  0  0
  8 56  2  0  0  0  0
  9 57  2  0  0  0  0
 10 18  2  0  0  0  0
 10 22  1  0  0  0  0
 11 19  1  0  0  0  0
 11 23  1  0  0  0  0
 12 20  1  0  0  0  0
 12 24  1  0  0  0  0
 13 21  2  0  0  0  0
 13 25  1  0  0  0  0
 14 54  1  0  0  0  0
 14100  1  0  0  0  0
 14101  1  0  0  0  0
 15 55  1  0  0  0  0
 15102  1  0  0  0  0
 15103  1  0  0  0  0
 16 56  1  0  0  0  0
 16 58  1  0  0  0  0
 16104  1  0  0  0  0
 17 57  1  0  0  0  0
 17 59  1  0  0  0  0
 17105  1  0  0  0  0
 18 27  1  0  0  0  0
 18 28  1  0  0  0  0
 19 26  1  0  0  0  0
 19 29  2  0  0  0  0
 20 30  2  0  0  0  0
 20 32  1  0  0  0  0
 21 30  1  0  0  0  0
 21 33  1  0  0  0  0
 22 26  2  0  0  0  0
 22 34  1  0  0  0  0
 23 31  1  0  0  0  0
 23 35  2  0  0  0  0
 24 28  2  0  0  0  0
 24 36  1  0  0  0  0
 25 31  2  0  0  0  0
 25 37  1  0  0  0  0
 26 60  1  0  0  0  0
 27 34  2  0  0  0  0
 27 38  1  0  0  0  0
 28 61  1  0  0  0  0
 29 35  1  0  0  0  0
 29 39  1  0  0  0  0
 30 62  1  0  0  0  0
 31 63  1  0  0  0  0
 32 36  2  0  0  0  0
 32 40  1  0  0  0  0
 33 37  2  0  0  0  0
 33 41  1  0  0  0  0
 34 42  1  0  0  0  0
 35 43  1  0  0  0  0
 36 44  1  0  0  0  0
 37 45  1  0  0  0  0
 38 48  1  0  0  0  0
 38 64  1  0  0  0  0
 39 49  1  0  0  0  0
 39 65  1  0  0  0  0
 40 46  1  0  0  0  0
 40 66  1  0  0  0  0
 40 67  1  0  0  0  0
 41 47  1  0  0  0  0
 41 68  1  0  0  0  0
 41 69  1  0  0  0  0
 42 70  1  0  0  0  0
 42 71  1  0  0  0  0
 42 72  1  0  0  0  0
 43 73  1  0  0  0  0
 43 74  1  0  0  0  0
 43 75  1  0  0  0  0
 44 76  1  0  0  0  0
 44 77  1  0  0  0  0
 44 78  1  0  0  0  0
 45 79  1  0  0  0  0
 45 80  1  0  0  0  0
 45 81  1  0  0  0  0
 46 52  1  0  0  0  0
 46 82  1  0  0  0  0
 46 83  1  0  0  0  0
 47 53  1  0  0  0  0
 47 84  1  0  0  0  0
 47 85  1  0  0  0  0
 48 86  1  0  0  0  0
 48 87  1  0  0  0  0
 48 88  1  0  0  0  0
 49 89  1  0  0  0  0
 49 90  1  0  0  0  0
 49 91  1  0  0  0  0
 50 54  1  0  0  0  0
 50 92  1  0  0  0  0
 50 93  1  0  0  0  0
 51 55  1  0  0  0  0
 51 94  1  0  0  0  0
 51 95  1  0  0  0  0
 54 56  1  0  0  0  0
 54 96  1  0  0  0  0
 55 57  1  0  0  0  0
 55 97  1  0  0  0  0
 58106  1  0  0  0  0
 58107  1  0  0  0  0
 58108  1  0  0  0  0
 59109  1  0  0  0  0
 59110  1  0  0  0  0
 59111  1  0  0  0  0
M  CHG  3   1   2  11  -1  12  -1
M  END
> <PUBCHEM_COMPOUND_CID>
439171

> <PUBCHEM_COMPOUND_CANONICALIZED>
1

> <PUBCHEM_CACTVS_COMPLEXITY>
2020

> <PUBCHEM_CACTVS_HBOND_ACCEPTOR>
12

> <PUBCHEM_CACTVS_HBOND_DONOR>
6

> <PUBCHEM_CACTVS_ROTATABLE_BOND>
16

> <PUBCHEM_CACTVS_SUBSKEYS>
AAADcfB/+ABgAAAgAAAAAAAAAAAAAWIECAAgQIEAAAAAAECBgAAAHgQQCAAADCjF3gSCiJLIEgioAyXyXACCgCAhAjAAmKG4RJgIYHLgkJGUQAhkkgDoyAeYWQIOgAAAAAAAAAAAAAAAAAAAAAAAAAAAAA==

> <PUBCHEM_IUPAC_OPENEYE_NAME>
ferrous 3-[7,12-bis[1-[2-amino-3-(methylamino)-3-oxo-propyl]sulfanylethyl]-18-(2-carboxyethyl)-3,8,13,17-tetramethyl-porphyrin-21,23-diid-2-yl]propanoic acid

> <PUBCHEM_IUPAC_CAS_NAME>
3-[7,12-bis[1-[[2-amino-3-(methylamino)-3-oxopropyl]thio]ethyl]-18-(2-carboxyethyl)-3,8,13,17-tetramethyl-2-porphyrin-21,23-diidyl]propanoic acid; iron(2+)

> <PUBCHEM_IUPAC_NAME>
3-[7,12-bis[1-[2-amino-3-(methylamino)-3-oxopropyl]sulfanylethyl]-18-(2-carboxyethyl)-3,8,13,17-tetramethylporphyrin-21,23-diid-2-yl]propanoic acid; iron(2+)

> <PUBCHEM_IUPAC_SYSTEMATIC_NAME>
3-[7,12-bis[1-[2-azanyl-3-(methylamino)-3-oxidanylidene-propyl]sulfanylethyl]-18-(2-carboxyethyl)-3,8,13,17-tetramethyl-porphyrin-21,23-diid-2-yl]propanoic acid; iron(2+)

> <PUBCHEM_IUPAC_TRADITIONAL_NAME>
ferrous 3-[7,12-bis[1-[[2-amino-3-keto-3-(methylamino)propyl]thio]ethyl]-18-(2-carboxyethyl)-3,8,13,17-tetramethyl-porphine-21,23-diid-2-yl]propionic acid

> <PUBCHEM_NIST_INCHI>
InChI=1S/C42H54N8O6S2.Fe/c1-19-25(9-11-37(51)52)33-16-34-26(10-12-38(53)54)20(2)30(48-34)14-35-40(24(6)58-18-28(44)42(56)46-8)22(4)32(50-35)15-36-39(21(3)31(49-36)13-29(19)47-33)23(5)57-17-27(43)41(55)45-7;/h13-16,23-24,27-28H,9-12,17-18,43-44H2,1-8H3,(H6,45,46,47,48,49,50,51,52,53,54,55,56);/q;+2/p-2

> <PUBCHEM_NIST_INCHIKEY>
WFVBWSTZNVJEAY-UHFFFAOYSA-L

> <PUBCHEM_EXACT_MASS>
884.280065

> <PUBCHEM_MOLECULAR_FORMULA>
C42H52FeN8O6S2

> <PUBCHEM_MOLECULAR_WEIGHT>
884.88728

> <PUBCHEM_OPENEYE_CAN_SMILES>
CC1=C(C2=CC3=NC(=CC4=C(C(=C([N-]4)C=C5C(=C(C(=N5)C=C1[N-]2)C(C)SCC(C(=O)NC)N)C)C(C)SCC(C(=O)NC)N)C)C(=C3CCC(=O)O)C)CCC(=O)O.[Fe+2]

> <PUBCHEM_OPENEYE_ISO_SMILES>
CC1=C(C2=CC3=NC(=CC4=C(C(=C([N-]4)C=C5C(=C(C(=N5)C=C1[N-]2)C(C)SCC(C(=O)NC)N)C)C(C)SCC(C(=O)NC)N)C)C(=C3CCC(=O)O)C)CCC(=O)O.[Fe+2]

> <PUBCHEM_CACTVS_TPSA>
262

> <PUBCHEM_MONOISOTOPIC_WEIGHT>
884.280065

> <PUBCHEM_TOTAL_CHARGE>
0

> <PUBCHEM_HEAVY_ATOM_COUNT>
59

> <PUBCHEM_ATOM_DEF_STEREO_COUNT>
0

> <PUBCHEM_ATOM_UDEF_STEREO_COUNT>
4

> <PUBCHEM_BOND_DEF_STEREO_COUNT>
0

> <PUBCHEM_BOND_UDEF_STEREO_COUNT>
0

> <PUBCHEM_ISOTOPIC_ATOM_COUNT>
0

> <PUBCHEM_COMPONENT_COUNT>
2

> <PUBCHEM_CACTVS_TAUTO_COUNT>
16

> <PUBCHEM_NONSTANDARDBOND>
1  10  6
1  11  6
1  12  6
1  13  6

> <PUBCHEM_COORDINATE_TYPE>
1
3

> <PUBCHEM_BONDANNOTATIONS>
10  18  8
10  22  8
11  19  8
11  23  8
12  20  8
12  24  8
13  21  8
13  25  8
18  28  8
19  26  8
19  29  8
20  30  8
20  32  8
21  30  8
22  26  8
23  31  8
23  35  8
24  28  8
24  36  8
25  31  8
29  35  8
32  36  8
38  64  3
39  65  3
54  96  3
55  97  3

$$$$

