44150366
  -OEChem-10021005392D

139139  0     0  0  0  0  0  0999 V2000
   18.7823   -3.1641    0.0000 S   0  0  0  0  0  0  0  0  0  0  0  0
   19.1025   -2.2168    0.0000 S   0  0  0  0  0  0  0  0  0  0  0  0
    2.7017    1.7464    0.0000 N   0  0  0  0  0  0  0  0  0  0  0  0
    3.8239    4.5135    0.0000 N   0  0  0  0  0  0  0  0  0  0  0  0
    2.6132   -1.2382    0.0000 N   0  0  0  0  0  0  0  0  0  0  0  0
    5.8394    6.7166    0.0000 N   0  0  0  0  0  0  0  0  0  0  0  0
    3.5695   -4.0669    0.0000 N   0  0  0  0  0  0  0  0  0  0  0  0
    8.4959    8.0801    0.0000 N   0  0  0  0  0  0  0  0  0  0  0  0
    5.4509   -6.3856    0.0000 N   0  0  0  0  0  0  0  0  0  0  0  0
   11.4609    8.4333    0.0000 N   0  0  0  0  0  0  0  0  0  0  0  0
    8.0220   -7.9040    0.0000 N   0  0  0  0  0  0  0  0  0  0  0  0
   14.3633    7.7319    0.0000 N   0  0  0  0  0  0  0  0  0  0  0  0
   10.9609   -8.4322    0.0000 N   0  0  0  0  0  0  0  0  0  0  0  0
   16.8399    6.0638    0.0000 N   0  0  0  0  0  0  0  0  0  0  0  0
   13.8997   -7.9040    0.0000 N   0  0  0  0  0  0  0  0  0  0  0  0
   18.5806    3.6378    0.0000 N   0  0  0  0  0  0  0  0  0  0  0  0
   16.4708   -6.3856    0.0000 N   0  0  0  0  0  0  0  0  0  0  0  0
   19.3677    0.7574    0.0000 N   0  0  0  0  0  0  0  0  0  0  0  0
    2.9653    2.7111    0.0000 C   0  0  0  0  0  0  0  0  0  0  0  0
    3.3411    3.6378    0.0000 C   0  0  0  0  0  0  0  0  0  0  0  0
    2.5540    0.7574    0.0000 C   0  0  0  0  0  0  0  0  0  0  0  0
    2.5244   -0.2422    0.0000 C   0  0  0  0  0  0  0  0  0  0  0  0
    4.4069    5.3260    0.0000 C   0  0  0  0  0  0  0  0  0  0  0  0
    2.8192   -2.2168    0.0000 C   0  0  0  0  0  0  0  0  0  0  0  0
    5.0819    6.0638    0.0000 C   0  0  0  0  0  0  0  0  0  0  0  0
    3.1394   -3.1641    0.0000 C   0  0  0  0  0  0  0  0  0  0  0  0
    6.6688    7.2753    0.0000 C   0  0  0  0  0  0  0  0  0  0  0  0
    4.1033   -4.9125    0.0000 C   0  0  0  0  0  0  0  0  0  0  0  0
    7.5584    7.7319    0.0000 C   0  0  0  0  0  0  0  0  0  0  0  0
    4.7334   -5.6890    0.0000 C   0  0  0  0  0  0  0  0  0  0  0  0
    9.4679    8.3150    0.0000 C   0  0  0  0  0  0  0  0  0  0  0  0
    6.2458   -6.9924    0.0000 C   0  0  0  0  0  0  0  0  0  0  0  0
   10.4609    8.4333    0.0000 C   0  0  0  0  0  0  0  0  0  0  0  0
    7.1068   -7.5009    0.0000 C   0  0  0  0  0  0  0  0  0  0  0  0
   12.4538    8.3150    0.0000 C   0  0  0  0  0  0  0  0  0  0  0  0
    8.9784   -8.1961    0.0000 C   0  0  0  0  0  0  0  0  0  0  0  0
   13.4259    8.0801    0.0000 C   0  0  0  0  0  0  0  0  0  0  0  0
    9.9626   -8.3730    0.0000 C   0  0  0  0  0  0  0  0  0  0  0  0
   15.2529    7.2753    0.0000 C   0  0  0  0  0  0  0  0  0  0  0  0
   11.9591   -8.3730    0.0000 C   0  0  0  0  0  0  0  0  0  0  0  0
   16.0823    6.7166    0.0000 C   0  0  0  0  0  0  0  0  0  0  0  0
   12.9433   -8.1961    0.0000 C   0  0  0  0  0  0  0  0  0  0  0  0
   17.5148    5.3260    0.0000 C   0  0  0  0  0  0  0  0  0  0  0  0
   14.8149   -7.5009    0.0000 C   0  0  0  0  0  0  0  0  0  0  0  0
   18.0978    4.5135    0.0000 C   0  0  0  0  0  0  0  0  0  0  0  0
   15.6759   -6.9924    0.0000 C   0  0  0  0  0  0  0  0  0  0  0  0
   18.9564    2.7111    0.0000 C   0  0  0  0  0  0  0  0  0  0  0  0
   17.1883   -5.6890    0.0000 C   0  0  0  0  0  0  0  0  0  0  0  0
   19.2200    1.7464    0.0000 C   0  0  0  0  0  0  0  0  0  0  0  0
   17.8184   -4.9125    0.0000 C   0  0  0  0  0  0  0  0  0  0  0  0
   18.3522   -4.0669    0.0000 C   0  0  0  0  0  0  0  0  0  0  0  0
   19.3973   -0.2422    0.0000 C   0  0  0  0  0  0  0  0  0  0  0  0
   19.3085   -1.2382    0.0000 C   0  0  0  0  0  0  0  0  0  0  0  0
    2.5652    3.1847    0.0000 H   0  0  0  0  0  0  0  0  0  0  0  0
    3.5526    2.5125    0.0000 H   0  0  0  0  0  0  0  0  0  0  0  0
    2.9998    4.1554    0.0000 H   0  0  0  0  0  0  0  0  0  0  0  0
    3.9008    3.3711    0.0000 H   0  0  0  0  0  0  0  0  0  0  0  0
    2.0539    1.1238    0.0000 H   0  0  0  0  0  0  0  0  0  0  0  0
    3.1716    0.7024    0.0000 H   0  0  0  0  0  0  0  0  0  0  0  0
    1.9844    0.0625    0.0000 H   0  0  0  0  0  0  0  0  0  0  0  0
    3.1441   -0.2238    0.0000 H   0  0  0  0  0  0  0  0  0  0  0  0
    4.1967    5.9093    0.0000 H   0  0  0  0  0  0  0  0  0  0  0  0
    4.8883    4.9353    0.0000 H   0  0  0  0  0  0  0  0  0  0  0  0
    4.9422    6.6679    0.0000 H   0  0  0  0  0  0  0  0  0  0  0  0
    5.5137    5.6190    0.0000 H   0  0  0  0  0  0  0  0  0  0  0  0
    2.2228   -2.0474    0.0000 H   0  0  0  0  0  0  0  0  0  0  0  0
    3.4173   -2.0533    0.0000 H   0  0  0  0  0  0  0  0  0  0  0  0
    2.5272   -3.0665    0.0000 H   0  0  0  0  0  0  0  0  0  0  0  0
    3.7140   -2.9311    0.0000 H   0  0  0  0  0  0  0  0  0  0  0  0
    6.6749    7.8953    0.0000 H   0  0  0  0  0  0  0  0  0  0  0  0
    6.9841    6.7414    0.0000 H   0  0  0  0  0  0  0  0  0  0  0  0
    3.4853   -4.9614    0.0000 H   0  0  0  0  0  0  0  0  0  0  0  0
    4.6071   -4.5510    0.0000 H   0  0  0  0  0  0  0  0  0  0  0  0
    7.6378    8.3468    0.0000 H   0  0  0  0  0  0  0  0  0  0  0  0
    7.8084    7.1645    0.0000 H   0  0  0  0  0  0  0  0  0  0  0  0
    4.1255   -5.8107    0.0000 H   0  0  0  0  0  0  0  0  0  0  0  0
    5.1909   -5.2705    0.0000 H   0  0  0  0  0  0  0  0  0  0  0  0
    9.6895    8.8940    0.0000 H   0  0  0  0  0  0  0  0  0  0  0  0
    9.5776    7.7048    0.0000 H   0  0  0  0  0  0  0  0  0  0  0  0
    5.6834   -7.2534    0.0000 H   0  0  0  0  0  0  0  0  0  0  0  0
    6.5922   -6.4781    0.0000 H   0  0  0  0  0  0  0  0  0  0  0  0
   10.7494    8.9820    0.0000 H   0  0  0  0  0  0  0  0  0  0  0  0
   10.4976    7.8144    0.0000 H   0  0  0  0  0  0  0  0  0  0  0  0
    6.5793   -7.8267    0.0000 H   0  0  0  0  0  0  0  0  0  0  0  0
    7.3900   -6.9493    0.0000 H   0  0  0  0  0  0  0  0  0  0  0  0
   12.8632    8.7806    0.0000 H   0  0  0  0  0  0  0  0  0  0  0  0
   12.3442    7.7048    0.0000 H   0  0  0  0  0  0  0  0  0  0  0  0
    8.5422   -8.6366    0.0000 H   0  0  0  0  0  0  0  0  0  0  0  0
    9.1240   -7.5934    0.0000 H   0  0  0  0  0  0  0  0  0  0  0  0
   13.8874    8.4941    0.0000 H   0  0  0  0  0  0  0  0  0  0  0  0
   13.2448    7.4872    0.0000 H   0  0  0  0  0  0  0  0  0  0  0  0
    9.5816   -8.8620    0.0000 H   0  0  0  0  0  0  0  0  0  0  0  0
   10.0359   -7.7573    0.0000 H   0  0  0  0  0  0  0  0  0  0  0  0
   15.7988    7.5692    0.0000 H   0  0  0  0  0  0  0  0  0  0  0  0
   14.9376    6.7414    0.0000 H   0  0  0  0  0  0  0  0  0  0  0  0
   11.7036   -8.9378    0.0000 H   0  0  0  0  0  0  0  0  0  0  0  0
   11.8858   -7.7573    0.0000 H   0  0  0  0  0  0  0  0  0  0  0  0
   16.6592    6.9440    0.0000 H   0  0  0  0  0  0  0  0  0  0  0  0
   15.7061    6.2238    0.0000 H   0  0  0  0  0  0  0  0  0  0  0  0
    2.0950    1.8742    0.0000 H   0  0  0  0  0  0  0  0  0  0  0  0
    3.2996    4.8445    0.0000 H   0  0  0  0  0  0  0  0  0  0  0  0
    2.0000   -1.3297    0.0000 H   0  0  0  0  0  0  0  0  0  0  0  0
    5.4632    7.2095    0.0000 H   0  0  0  0  0  0  0  0  0  0  0  0
    3.0266   -4.3662    0.0000 H   0  0  0  0  0  0  0  0  0  0  0  0
    8.3148    8.6731    0.0000 H   0  0  0  0  0  0  0  0  0  0  0  0
   12.7564   -8.7872    0.0000 H   0  0  0  0  0  0  0  0  0  0  0  0
   12.7977   -7.5934    0.0000 H   0  0  0  0  0  0  0  0  0  0  0  0
    5.0462   -6.8552    0.0000 H   0  0  0  0  0  0  0  0  0  0  0  0
   11.4976    9.0522    0.0000 H   0  0  0  0  0  0  0  0  0  0  0  0
    7.8061   -8.4852    0.0000 H   0  0  0  0  0  0  0  0  0  0  0  0
   14.6132    8.2993    0.0000 H   0  0  0  0  0  0  0  0  0  0  0  0
   10.9609   -9.0522    0.0000 H   0  0  0  0  0  0  0  0  0  0  0  0
   18.1289    5.4115    0.0000 H   0  0  0  0  0  0  0  0  0  0  0  0
   17.0334    4.9353    0.0000 H   0  0  0  0  0  0  0  0  0  0  0  0
   14.7720   -8.1194    0.0000 H   0  0  0  0  0  0  0  0  0  0  0  0
   14.5318   -6.9493    0.0000 H   0  0  0  0  0  0  0  0  0  0  0  0
   18.7177    4.5258    0.0000 H   0  0  0  0  0  0  0  0  0  0  0  0
   17.5735    4.1825    0.0000 H   0  0  0  0  0  0  0  0  0  0  0  0
   15.7065   -7.6116    0.0000 H   0  0  0  0  0  0  0  0  0  0  0  0
   15.3296   -6.4781    0.0000 H   0  0  0  0  0  0  0  0  0  0  0  0
   17.2717    6.5087    0.0000 H   0  0  0  0  0  0  0  0  0  0  0  0
   14.1156   -8.4852    0.0000 H   0  0  0  0  0  0  0  0  0  0  0  0
   19.5618    2.5774    0.0000 H   0  0  0  0  0  0  0  0  0  0  0  0
   18.3691    2.5125    0.0000 H   0  0  0  0  0  0  0  0  0  0  0  0
   17.3635   -6.2837    0.0000 H   0  0  0  0  0  0  0  0  0  0  0  0
   16.7308   -5.2705    0.0000 H   0  0  0  0  0  0  0  0  0  0  0  0
   19.1403    3.9044    0.0000 H   0  0  0  0  0  0  0  0  0  0  0  0
   16.8755   -6.8552    0.0000 H   0  0  0  0  0  0  0  0  0  0  0  0
   19.8054    1.5421    0.0000 H   0  0  0  0  0  0  0  0  0  0  0  0
   18.6133    1.6187    0.0000 H   0  0  0  0  0  0  0  0  0  0  0  0
   18.0627   -5.4823    0.0000 H   0  0  0  0  0  0  0  0  0  0  0  0
   17.3146   -4.5510    0.0000 H   0  0  0  0  0  0  0  0  0  0  0  0
   19.9852    0.8125    0.0000 H   0  0  0  0  0  0  0  0  0  0  0  0
   18.6622   -4.6038    0.0000 H   0  0  0  0  0  0  0  0  0  0  0  0
   17.8092   -3.7676    0.0000 H   0  0  0  0  0  0  0  0  0  0  0  0
   19.9183   -0.5783    0.0000 H   0  0  0  0  0  0  0  0  0  0  0  0
   18.7776   -0.2238    0.0000 H   0  0  0  0  0  0  0  0  0  0  0  0
   19.7861   -1.6336    0.0000 H   0  0  0  0  0  0  0  0  0  0  0  0
   18.6953   -1.1467    0.0000 H   0  0  0  0  0  0  0  0  0  0  0  0
  1  2  1  0  0  0  0
  1 51  1  0  0  0  0
  2 53  1  0  0  0  0
  3 19  1  0  0  0  0
  3 21  1  0  0  0  0
  3100  1  0  0  0  0
  4 20  1  0  0  0  0
  4 23  1  0  0  0  0
  4101  1  0  0  0  0
  5 22  1  0  0  0  0
  5 24  1  0  0  0  0
  5102  1  0  0  0  0
  6 25  1  0  0  0  0
  6 27  1  0  0  0  0
  6103  1  0  0  0  0
  7 26  1  0  0  0  0
  7 28  1  0  0  0  0
  7104  1  0  0  0  0
  8 29  1  0  0  0  0
  8 31  1  0  0  0  0
  8105  1  0  0  0  0
  9 30  1  0  0  0  0
  9 32  1  0  0  0  0
  9108  1  0  0  0  0
 10 33  1  0  0  0  0
 10 35  1  0  0  0  0
 10109  1  0  0  0  0
 11 34  1  0  0  0  0
 11 36  1  0  0  0  0
 11110  1  0  0  0  0
 12 37  1  0  0  0  0
 12 39  1  0  0  0  0
 12111  1  0  0  0  0
 13 38  1  0  0  0  0
 13 40  1  0  0  0  0
 13112  1  0  0  0  0
 14 41  1  0  0  0  0
 14 43  1  0  0  0  0
 14121  1  0  0  0  0
 15 42  1  0  0  0  0
 15 44  1  0  0  0  0
 15122  1  0  0  0  0
 16 45  1  0  0  0  0
 16 47  1  0  0  0  0
 16127  1  0  0  0  0
 17 46  1  0  0  0  0
 17 48  1  0  0  0  0
 17128  1  0  0  0  0
 18 49  1  0  0  0  0
 18 52  1  0  0  0  0
 18133  1  0  0  0  0
 19 20  1  0  0  0  0
 19 54  1  0  0  0  0
 19 55  1  0  0  0  0
 20 56  1  0  0  0  0
 20 57  1  0  0  0  0
 21 22  1  0  0  0  0
 21 58  1  0  0  0  0
 21 59  1  0  0  0  0
 22 60  1  0  0  0  0
 22 61  1  0  0  0  0
 23 25  1  0  0  0  0
 23 62  1  0  0  0  0
 23 63  1  0  0  0  0
 24 26  1  0  0  0  0
 24 66  1  0  0  0  0
 24 67  1  0  0  0  0
 25 64  1  0  0  0  0
 25 65  1  0  0  0  0
 26 68  1  0  0  0  0
 26 69  1  0  0  0  0
 27 29  1  0  0  0  0
 27 70  1  0  0  0  0
 27 71  1  0  0  0  0
 28 30  1  0  0  0  0
 28 72  1  0  0  0  0
 28 73  1  0  0  0  0
 29 74  1  0  0  0  0
 29 75  1  0  0  0  0
 30 76  1  0  0  0  0
 30 77  1  0  0  0  0
 31 33  1  0  0  0  0
 31 78  1  0  0  0  0
 31 79  1  0  0  0  0
 32 34  1  0  0  0  0
 32 80  1  0  0  0  0
 32 81  1  0  0  0  0
 33 82  1  0  0  0  0
 33 83  1  0  0  0  0
 34 84  1  0  0  0  0
 34 85  1  0  0  0  0
 35 37  1  0  0  0  0
 35 86  1  0  0  0  0
 35 87  1  0  0  0  0
 36 38  1  0  0  0  0
 36 88  1  0  0  0  0
 36 89  1  0  0  0  0
 37 90  1  0  0  0  0
 37 91  1  0  0  0  0
 38 92  1  0  0  0  0
 38 93  1  0  0  0  0
 39 41  1  0  0  0  0
 39 94  1  0  0  0  0
 39 95  1  0  0  0  0
 40 42  1  0  0  0  0
 40 96  1  0  0  0  0
 40 97  1  0  0  0  0
 41 98  1  0  0  0  0
 41 99  1  0  0  0  0
 42106  1  0  0  0  0
 42107  1  0  0  0  0
 43 45  1  0  0  0  0
 43113  1  0  0  0  0
 43114  1  0  0  0  0
 44 46  1  0  0  0  0
 44115  1  0  0  0  0
 44116  1  0  0  0  0
 45117  1  0  0  0  0
 45118  1  0  0  0  0
 46119  1  0  0  0  0
 46120  1  0  0  0  0
 47 49  1  0  0  0  0
 47123  1  0  0  0  0
 47124  1  0  0  0  0
 48 50  1  0  0  0  0
 48125  1  0  0  0  0
 48126  1  0  0  0  0
 49129  1  0  0  0  0
 49130  1  0  0  0  0
 50 51  1  0  0  0  0
 50131  1  0  0  0  0
 50132  1  0  0  0  0
 51134  1  0  0  0  0
 51135  1  0  0  0  0
 52 53  1  0  0  0  0
 52136  1  0  0  0  0
 52137  1  0  0  0  0
 53138  1  0  0  0  0
 53139  1  0  0  0  0
M  END
> <PUBCHEM_COMPOUND_CID>
44150366

> <PUBCHEM_COMPOUND_CANONICALIZED>
1

> <PUBCHEM_CACTVS_COMPLEXITY>
665

> <PUBCHEM_CACTVS_HBOND_ACCEPTOR>
16

> <PUBCHEM_CACTVS_HBOND_DONOR>
16

> <PUBCHEM_CACTVS_ROTATABLE_BOND>
0

> <PUBCHEM_CACTVS_SUBSKEYS>
AAADcfB/wABgAAAAAAAAAAAAAAAAAAAAAAAAAAAAAAAAAAAAAAAAHAQQAAAACADFQASAAALAAAAAAAAAAAAAAAAAAAAAAIAIAAAAQAAAAAAUAAAAEACAAAAAAAAAAAAAAAAAAAAAAAAAAAAAAAAAAAAAAA==

> <PUBCHEM_IUPAC_OPENEYE_NAME>
1,2-dithia-5,8,11,14,17,20,23,26,29,32,35,38,41,44,47,50-hexadecazacyclotripentacontane

> <PUBCHEM_IUPAC_CAS_NAME>
1,2-dithia-5,8,11,14,17,20,23,26,29,32,35,38,41,44,47,50-hexadecazacyclotripentacontane

> <PUBCHEM_IUPAC_NAME>
1,2-dithia-5,8,11,14,17,20,23,26,29,32,35,38,41,44,47,50-hexadecazacyclotripentacontane

> <PUBCHEM_IUPAC_SYSTEMATIC_NAME>
1,2-dithia-5,8,11,14,17,20,23,26,29,32,35,38,41,44,47,50-hexadecazacyclotripentacontane

> <PUBCHEM_IUPAC_TRADITIONAL_NAME>
1,2-dithia-5,8,11,14,17,20,23,26,29,32,35,38,41,44,47,50-hexadecazacyclotripentacontane

> <PUBCHEM_NIST_INCHI>
InChI=1S/C35H86N16S2/c1-2-36-3-4-37-5-6-38-7-8-39-9-10-40-11-12-41-13-14-42-15-16-43-17-18-44-19-20-45-21-22-46-23-24-47-25-26-48-27-28-49-29-30-50-31-32-51-33-35-53-52-34-1/h36-51H,1-35H2

> <PUBCHEM_NIST_INCHIKEY>
LETNVGYFXXOEHF-UHFFFAOYSA-N

> <PUBCHEM_XLOGP3_AA>
-5.8

> <PUBCHEM_EXACT_MASS>
794.666278

> <PUBCHEM_MOLECULAR_FORMULA>
C35H86N16S2

> <PUBCHEM_MOLECULAR_WEIGHT>
795.29454

> <PUBCHEM_OPENEYE_CAN_SMILES>
C1CNCCNCCNCCNCCNCCNCCNCCNCCNCCNCCNCCNCCNCCNCCNCCNCCSSC1

> <PUBCHEM_OPENEYE_ISO_SMILES>
C1CNCCNCCNCCNCCNCCNCCNCCNCCNCCNCCNCCNCCNCCNCCNCCNCCSSC1

> <PUBCHEM_CACTVS_TPSA>
243

> <PUBCHEM_MONOISOTOPIC_WEIGHT>
794.666278

> <PUBCHEM_TOTAL_CHARGE>
0

> <PUBCHEM_HEAVY_ATOM_COUNT>
53

> <PUBCHEM_ATOM_DEF_STEREO_COUNT>
0

> <PUBCHEM_ATOM_UDEF_STEREO_COUNT>
0

> <PUBCHEM_BOND_DEF_STEREO_COUNT>
0

> <PUBCHEM_BOND_UDEF_STEREO_COUNT>
0

> <PUBCHEM_ISOTOPIC_ATOM_COUNT>
0

> <PUBCHEM_COMPONENT_COUNT>
1

> <PUBCHEM_CACTVS_TAUTO_COUNT>
1

> <PUBCHEM_COORDINATE_TYPE>
1
3

$$$$

