10078718
  -OEChem-10021002162D

112112  0     1  0  0  0  0  0999 V2000
    8.0622   -2.0000    0.0000 O   0  0  0  0  0  0  0  0  0  0  0  0
    6.3301    1.0000    0.0000 O   0  0  0  0  0  0  0  0  0  0  0  0
    2.8660   -2.0000    0.0000 O   0  0  0  0  0  0  0  0  0  0  0  0
    9.7942    1.0000    0.0000 O   0  0  0  0  0  0  0  0  0  0  0  0
    6.8301   -1.1340    0.0000 O   0  0  0  0  0  0  0  0  0  0  0  0
    7.1962    3.5000    0.0000 O   0  0  0  0  0  0  0  0  0  0  0  0
    8.9282   -3.5000    0.0000 O   0  0  0  0  0  0  0  0  0  0  0  0
    6.1070   -0.2660    0.0000 O   0  0  0  0  0  0  0  0  0  0  0  0
    3.7320   -3.5000    0.0000 O   0  0  0  0  0  0  0  0  0  0  0  0
   10.6603    2.5000    0.0000 O   0  0  0  0  0  0  0  0  0  0  0  0
    4.5981   -1.0000    0.0000 O   0  0  0  0  0  0  0  0  0  0  0  0
   11.5263   -1.0000    0.0000 O   0  0  0  0  0  0  0  0  0  0  0  0
    5.4641   -2.5000    0.0000 N   0  0  0  0  0  0  0  0  0  0  0  0
    8.0622    2.0000    0.0000 N   0  0  0  0  0  0  0  0  0  0  0  0
    9.7942   -1.0000    0.0000 N   0  0  0  0  0  0  0  0  0  0  0  0
    3.7320    0.5000    0.0000 N   0  0  0  0  0  0  0  0  0  0  0  0
    7.1962   -2.5000    0.0000 C   0  0  2  0  0  0  0  0  0  0  0  0
    6.3301    2.0000    0.0000 C   0  0  2  0  0  0  0  0  0  0  0  0
    4.5981   -2.0000    0.0000 C   0  0  2  0  0  0  0  0  0  0  0  0
    8.9282    2.5000    0.0000 C   0  0  2  0  0  0  0  0  0  0  0  0
    9.7942   -2.0000    0.0000 C   0  0  1  0  0  0  0  0  0  0  0  0
    4.5981    1.0000    0.0000 C   0  0  1  0  0  0  0  0  0  0  0  0
    7.1962   -3.5000    0.0000 C   0  0  0  0  0  0  0  0  0  0  0  0
    5.9881    2.9397    0.0000 C   0  0  0  0  0  0  0  0  0  0  0  0
    5.2409   -1.2340    0.0000 C   0  0  0  0  0  0  0  0  0  0  0  0
    8.9282    3.5000    0.0000 C   0  0  0  0  0  0  0  0  0  0  0  0
   10.6603   -2.5000    0.0000 C   0  0  0  0  0  0  0  0  0  0  0  0
    3.9553    1.7660    0.0000 C   0  0  0  0  0  0  0  0  0  0  0  0
    6.3301   -2.0000    0.0000 C   0  0  0  0  0  0  0  0  0  0  0  0
    7.1962    2.5000    0.0000 C   0  0  0  0  0  0  0  0  0  0  0  0
    8.9282   -2.5000    0.0000 C   0  0  0  0  0  0  0  0  0  0  0  0
    5.4641    0.5000    0.0000 C   0  0  0  0  0  0  0  0  0  0  0  0
    3.7320   -2.5000    0.0000 C   0  0  0  0  0  0  0  0  0  0  0  0
    9.7942    2.0000    0.0000 C   0  0  0  0  0  0  0  0  0  0  0  0
    6.3301   -4.0000    0.0000 C   0  0  0  0  0  0  0  0  0  0  0  0
    8.0622   -4.0000    0.0000 C   0  0  0  0  0  0  0  0  0  0  0  0
    6.6309    3.7057    0.0000 C   0  0  0  0  0  0  0  0  0  0  0  0
    5.0034    3.1134    0.0000 C   0  0  0  0  0  0  0  0  0  0  0  0
    4.8988   -0.2943    0.0000 C   0  0  0  0  0  0  0  0  0  0  0  0
    6.1806   -0.8919    0.0000 C   0  0  0  0  0  0  0  0  0  0  0  0
    9.7942    4.0000    0.0000 C   0  0  0  0  0  0  0  0  0  0  0  0
    8.0622    4.0000    0.0000 C   0  0  0  0  0  0  0  0  0  0  0  0
   10.6603   -3.5000    0.0000 C   0  0  0  0  0  0  0  0  0  0  0  0
   11.5263   -2.0000    0.0000 C   0  0  0  0  0  0  0  0  0  0  0  0
    2.9705    1.5924    0.0000 C   0  0  0  0  0  0  0  0  0  0  0  0
    4.2973    2.7057    0.0000 C   0  0  0  0  0  0  0  0  0  0  0  0
    2.8660   -1.0000    0.0000 C   0  0  1  0  0  0  0  0  0  0  0  0
   10.6603    0.5000    0.0000 C   0  0  1  0  0  0  0  0  0  0  0  0
    3.7320   -0.5000    0.0000 C   0  0  0  0  0  0  0  0  0  0  0  0
   10.6603   -0.5000    0.0000 C   0  0  0  0  0  0  0  0  0  0  0  0
    2.0000   -0.5000    0.0000 C   0  0  0  0  0  0  0  0  0  0  0  0
   11.5263    1.0000    0.0000 C   0  0  0  0  0  0  0  0  0  0  0  0
    7.7331   -2.8100    0.0000 H   0  0  0  0  0  0  0  0  0  0  0  0
    5.7196    1.8923    0.0000 H   0  0  0  0  0  0  0  0  0  0  0  0
    5.2087   -1.8923    0.0000 H   0  0  0  0  0  0  0  0  0  0  0  0
    8.3913    2.8100    0.0000 H   0  0  0  0  0  0  0  0  0  0  0  0
   10.3312   -1.6900    0.0000 H   0  0  0  0  0  0  0  0  0  0  0  0
    3.9875    1.1077    0.0000 H   0  0  0  0  0  0  0  0  0  0  0  0
    6.6592   -3.1900    0.0000 H   0  0  0  0  0  0  0  0  0  0  0  0
    5.5896    2.4648    0.0000 H   0  0  0  0  0  0  0  0  0  0  0  0
    5.5965   -1.7418    0.0000 H   0  0  0  0  0  0  0  0  0  0  0  0
    9.4651    3.1900    0.0000 H   0  0  0  0  0  0  0  0  0  0  0  0
   11.1972   -2.8100    0.0000 H   0  0  0  0  0  0  0  0  0  0  0  0
    3.5568    2.2410    0.0000 H   0  0  0  0  0  0  0  0  0  0  0  0
    5.4641   -3.1200    0.0000 H   0  0  0  0  0  0  0  0  0  0  0  0
    8.0622    1.3800    0.0000 H   0  0  0  0  0  0  0  0  0  0  0  0
    9.2573   -0.6900    0.0000 H   0  0  0  0  0  0  0  0  0  0  0  0
    3.1951    0.8100    0.0000 H   0  0  0  0  0  0  0  0  0  0  0  0
    6.0201   -3.4631    0.0000 H   0  0  0  0  0  0  0  0  0  0  0  0
    5.7932   -4.3100    0.0000 H   0  0  0  0  0  0  0  0  0  0  0  0
    6.6401   -4.5369    0.0000 H   0  0  0  0  0  0  0  0  0  0  0  0
    7.7522   -4.5369    0.0000 H   0  0  0  0  0  0  0  0  0  0  0  0
    8.5991   -4.3100    0.0000 H   0  0  0  0  0  0  0  0  0  0  0  0
    8.3722   -3.4631    0.0000 H   0  0  0  0  0  0  0  0  0  0  0  0
    7.1058    3.3072    0.0000 H   0  0  0  0  0  0  0  0  0  0  0  0
    7.0294    4.1807    0.0000 H   0  0  0  0  0  0  0  0  0  0  0  0
    6.1560    4.1043    0.0000 H   0  0  0  0  0  0  0  0  0  0  0  0
    5.1111    3.7240    0.0000 H   0  0  0  0  0  0  0  0  0  0  0  0
    4.3928    3.2211    0.0000 H   0  0  0  0  0  0  0  0  0  0  0  0
    4.8956    2.5028    0.0000 H   0  0  0  0  0  0  0  0  0  0  0  0
    5.4814   -0.0822    0.0000 H   0  0  0  0  0  0  0  0  0  0  0  0
    4.6868    0.2883    0.0000 H   0  0  0  0  0  0  0  0  0  0  0  0
    4.3162   -0.5063    0.0000 H   0  0  0  0  0  0  0  0  0  0  0  0
    6.3926   -1.4745    0.0000 H   0  0  0  0  0  0  0  0  0  0  0  0
    6.7632   -0.6799    0.0000 H   0  0  0  0  0  0  0  0  0  0  0  0
    5.9685   -0.3093    0.0000 H   0  0  0  0  0  0  0  0  0  0  0  0
    8.3722    4.5369    0.0000 H   0  0  0  0  0  0  0  0  0  0  0  0
    7.5252    4.3100    0.0000 H   0  0  0  0  0  0  0  0  0  0  0  0
    7.7522    3.4631    0.0000 H   0  0  0  0  0  0  0  0  0  0  0  0
   10.1042    3.4631    0.0000 H   0  0  0  0  0  0  0  0  0  0  0  0
   10.3312    4.3100    0.0000 H   0  0  0  0  0  0  0  0  0  0  0  0
    9.4842    4.5369    0.0000 H   0  0  0  0  0  0  0  0  0  0  0  0
   11.8363   -2.5369    0.0000 H   0  0  0  0  0  0  0  0  0  0  0  0
   12.0632   -1.6900    0.0000 H   0  0  0  0  0  0  0  0  0  0  0  0
   11.2163   -1.4631    0.0000 H   0  0  0  0  0  0  0  0  0  0  0  0
   10.0403   -3.5000    0.0000 H   0  0  0  0  0  0  0  0  0  0  0  0
   10.6603   -4.1200    0.0000 H   0  0  0  0  0  0  0  0  0  0  0  0
   11.2803   -3.5000    0.0000 H   0  0  0  0  0  0  0  0  0  0  0  0
    2.8628    2.2030    0.0000 H   0  0  0  0  0  0  0  0  0  0  0  0
    2.3599    1.4847    0.0000 H   0  0  0  0  0  0  0  0  0  0  0  0
    3.0781    0.9818    0.0000 H   0  0  0  0  0  0  0  0  0  0  0  0
    4.8799    2.4937    0.0000 H   0  0  0  0  0  0  0  0  0  0  0  0
    4.5094    3.2884    0.0000 H   0  0  0  0  0  0  0  0  0  0  0  0
    3.7147    2.9178    0.0000 H   0  0  0  0  0  0  0  0  0  0  0  0
    2.3291   -1.3100    0.0000 H   0  0  0  0  0  0  0  0  0  0  0  0
   10.6603    1.1200    0.0000 H   0  0  0  0  0  0  0  0  0  0  0  0
    2.3100    0.0369    0.0000 H   0  0  0  0  0  0  0  0  0  0  0  0
    1.4631   -0.1900    0.0000 H   0  0  0  0  0  0  0  0  0  0  0  0
    1.6900   -1.0369    0.0000 H   0  0  0  0  0  0  0  0  0  0  0  0
   11.8363    0.4631    0.0000 H   0  0  0  0  0  0  0  0  0  0  0  0
   12.0632    1.3100    0.0000 H   0  0  0  0  0  0  0  0  0  0  0  0
   11.2163    1.5369    0.0000 H   0  0  0  0  0  0  0  0  0  0  0  0
  1 17  1  0  0  0  0
  1 31  1  0  0  0  0
  2 18  1  0  0  0  0
  2 32  1  0  0  0  0
  3 33  1  0  0  0  0
  3 47  1  0  0  0  0
  4 34  1  0  0  0  0
  4 48  1  0  0  0  0
  5 29  2  0  0  0  0
  6 30  2  0  0  0  0
  7 31  2  0  0  0  0
  8 32  2  0  0  0  0
  9 33  2  0  0  0  0
 10 34  2  0  0  0  0
 11 49  2  0  0  0  0
 12 50  2  0  0  0  0
 13 19  1  0  0  0  0
 13 29  1  0  0  0  0
 13 65  1  0  0  0  0
 14 20  1  0  0  0  0
 14 30  1  0  0  0  0
 14 66  1  0  0  0  0
 15 21  1  0  0  0  0
 15 50  1  0  0  0  0
 15 67  1  0  0  0  0
 16 22  1  0  0  0  0
 16 49  1  0  0  0  0
 16 68  1  0  0  0  0
 17 23  1  6  0  0  0
 17 29  1  0  0  0  0
 17 53  1  0  0  0  0
 18 24  1  6  0  0  0
 18 30  1  0  0  0  0
 18 54  1  0  0  0  0
 19 25  1  1  0  0  0
 19 33  1  0  0  0  0
 19 55  1  0  0  0  0
 20 26  1  6  0  0  0
 20 34  1  0  0  0  0
 20 56  1  0  0  0  0
 21 27  1  1  0  0  0
 21 31  1  0  0  0  0
 21 57  1  0  0  0  0
 22 28  1  1  0  0  0
 22 32  1  0  0  0  0
 22 58  1  0  0  0  0
 23 35  1  0  0  0  0
 23 36  1  0  0  0  0
 23 59  1  0  0  0  0
 24 37  1  0  0  0  0
 24 38  1  0  0  0  0
 24 60  1  0  0  0  0
 25 39  1  0  0  0  0
 25 40  1  0  0  0  0
 25 61  1  0  0  0  0
 26 41  1  0  0  0  0
 26 42  1  0  0  0  0
 26 62  1  0  0  0  0
 27 43  1  0  0  0  0
 27 44  1  0  0  0  0
 27 63  1  0  0  0  0
 28 45  1  0  0  0  0
 28 46  1  0  0  0  0
 28 64  1  0  0  0  0
 35 69  1  0  0  0  0
 35 70  1  0  0  0  0
 35 71  1  0  0  0  0
 36 72  1  0  0  0  0
 36 73  1  0  0  0  0
 36 74  1  0  0  0  0
 37 75  1  0  0  0  0
 37 76  1  0  0  0  0
 37 77  1  0  0  0  0
 38 78  1  0  0  0  0
 38 79  1  0  0  0  0
 38 80  1  0  0  0  0
 39 81  1  0  0  0  0
 39 82  1  0  0  0  0
 39 83  1  0  0  0  0
 40 84  1  0  0  0  0
 40 85  1  0  0  0  0
 40 86  1  0  0  0  0
 41 90  1  0  0  0  0
 41 91  1  0  0  0  0
 41 92  1  0  0  0  0
 42 87  1  0  0  0  0
 42 88  1  0  0  0  0
 42 89  1  0  0  0  0
 43 96  1  0  0  0  0
 43 97  1  0  0  0  0
 43 98  1  0  0  0  0
 44 93  1  0  0  0  0
 44 94  1  0  0  0  0
 44 95  1  0  0  0  0
 45 99  1  0  0  0  0
 45100  1  0  0  0  0
 45101  1  0  0  0  0
 46102  1  0  0  0  0
 46103  1  0  0  0  0
 46104  1  0  0  0  0
 47 49  1  0  0  0  0
 47 51  1  6  0  0  0
 47105  1  0  0  0  0
 48 50  1  0  0  0  0
 48 52  1  6  0  0  0
 48106  1  0  0  0  0
 51107  1  0  0  0  0
 51108  1  0  0  0  0
 51109  1  0  0  0  0
 52110  1  0  0  0  0
 52111  1  0  0  0  0
 52112  1  0  0  0  0
M  END
> <PUBCHEM_COMPOUND_CID>
10078718

> <PUBCHEM_COMPOUND_CANONICALIZED>
1

> <PUBCHEM_CACTVS_COMPLEXITY>
1210

> <PUBCHEM_CACTVS_HBOND_ACCEPTOR>
12

> <PUBCHEM_CACTVS_HBOND_DONOR>
4

> <PUBCHEM_CACTVS_ROTATABLE_BOND>
6

> <PUBCHEM_CACTVS_SUBSKEYS>
AAADcfB/vAAAAAAAAAAAAAAAAAAAAAAAAAAAAAAAAAAAAAAAAAAAHgAQAAAADTzhgAYCCALABAAIAAGQGAIAAAAAAAAAAIHIAAACABAAgCQHAAAEFgCQAAAAAAAIAAAAAAAAAAAAAAAAAAAAAAAAAAAAAA==

> <PUBCHEM_IUPAC_OPENEYE_NAME>
(3R,6R,9S,12R,15R,18R,21S,24R)-3,6,9,15,18,21-hexaisopropyl-12,24-dimethyl-1,7,13,19-tetraoxa-4,10,16,22-tetrazacyclotetracosane-2,5,8,11,14,17,20,23-octone

> <PUBCHEM_IUPAC_CAS_NAME>
(3S,6R,9R,12R,15S,18R,21R,24R)-6,18-dimethyl-3,9,12,15,21,24-hexa(propan-2-yl)-1,7,13,19-tetraoxa-4,10,16,22-tetrazacyclotetracosane-2,5,8,11,14,17,20,23-octone

> <PUBCHEM_IUPAC_NAME>
(3S,6R,9R,12R,15S,18R,21R,24R)-6,18-dimethyl-3,9,12,15,21,24-hexa(propan-2-yl)-1,7,13,19-tetraoxa-4,10,16,22-tetrazacyclotetracosane-2,5,8,11,14,17,20,23-octone

> <PUBCHEM_IUPAC_SYSTEMATIC_NAME>
(3S,6R,9R,12R,15S,18R,21R,24R)-6,18-dimethyl-3,9,12,15,21,24-hexa(propan-2-yl)-1,7,13,19-tetraoxa-4,10,16,22-tetrazacyclotetracosane-2,5,8,11,14,17,20,23-octone

> <PUBCHEM_IUPAC_TRADITIONAL_NAME>
(3R,6R,9S,12R,15R,18R,21S,24R)-3,6,9,15,18,21-hexaisopropyl-12,24-dimethyl-1,7,13,19-tetraoxa-4,10,16,22-tetrazacyclotetracosane-2,5,8,11,14,17,20,23-tetraquinone

> <PUBCHEM_NIST_INCHI>
InChI=1S/C36H60N4O12/c1-15(2)23-33(45)49-21(13)29(41)37-26(18(7)8)36(48)52-28(20(11)12)32(44)40-24(16(3)4)34(46)50-22(14)30(42)38-25(17(5)6)35(47)51-27(19(9)10)31(43)39-23/h15-28H,1-14H3,(H,37,41)(H,38,42)(H,39,43)(H,40,44)/t21-,22-,23-,24-,25+,26+,27-,28-/m1/s1

> <PUBCHEM_NIST_INCHIKEY>
NGUGHCRMWIKICS-UVOVEWRNSA-N

> <PUBCHEM_XLOGP3_AA>
6.1

> <PUBCHEM_EXACT_MASS>
740.420773

> <PUBCHEM_MOLECULAR_FORMULA>
C36H60N4O12

> <PUBCHEM_MOLECULAR_WEIGHT>
740.8812

> <PUBCHEM_OPENEYE_CAN_SMILES>
CC1C(=O)NC(C(=O)OC(C(=O)NC(C(=O)OC(C(=O)NC(C(=O)OC(C(=O)NC(C(=O)O1)C(C)C)C(C)C)C(C)C)C)C(C)C)C(C)C)C(C)C

> <PUBCHEM_OPENEYE_ISO_SMILES>
C[C@@H]1C(=O)N[C@H](C(=O)O[C@@H](C(=O)N[C@@H](C(=O)O[C@@H](C(=O)N[C@H](C(=O)O[C@@H](C(=O)N[C@@H](C(=O)O1)C(C)C)C(C)C)C(C)C)C)C(C)C)C(C)C)C(C)C

> <PUBCHEM_CACTVS_TPSA>
222

> <PUBCHEM_MONOISOTOPIC_WEIGHT>
740.420773

> <PUBCHEM_TOTAL_CHARGE>
0

> <PUBCHEM_HEAVY_ATOM_COUNT>
52

> <PUBCHEM_ATOM_DEF_STEREO_COUNT>
8

> <PUBCHEM_ATOM_UDEF_STEREO_COUNT>
0

> <PUBCHEM_BOND_DEF_STEREO_COUNT>
0

> <PUBCHEM_BOND_UDEF_STEREO_COUNT>
0

> <PUBCHEM_ISOTOPIC_ATOM_COUNT>
0

> <PUBCHEM_COMPONENT_COUNT>
1

> <PUBCHEM_CACTVS_TAUTO_COUNT>
666

> <PUBCHEM_COORDINATE_TYPE>
1
3

> <PUBCHEM_BONDANNOTATIONS>
17  23  6
18  24  6
19  25  5
20  26  6
21  27  5
22  28  5
47  51  6
48  52  6

$$$$

