5357451
  -OEChem-10021002463D

 35 36  0     0  0  0  0  0  0999 V2000
   -1.3808   -2.4533    1.3594 O   0  0  0  0  0  0  0  0  0  0  0  0
   -2.8503    2.4531    0.0315 O   0  0  0  0  0  0  0  0  0  0  0  0
    2.0019   -1.1671   -1.3927 O   0  0  0  0  0  0  0  0  0  0  0  0
   -5.1013   -0.2549   -0.3004 N   0  0  0  0  0  0  0  0  0  0  0  0
    0.0328   -0.5187    0.4015 N   0  0  0  0  0  0  0  0  0  0  0  0
    1.3383   -0.1134    0.5606 N   0  0  0  0  0  0  0  0  0  0  0  0
    6.2275    0.8922    0.2130 N   0  0  0  0  0  0  0  0  0  0  0  0
   -2.2799    0.1150    0.0897 C   0  0  0  0  0  0  0  0  0  0  0  0
   -2.8838   -1.2014   -0.0044 C   0  0  0  0  0  0  0  0  0  0  0  0
   -3.1927    1.2833   -0.0256 C   0  0  0  0  0  0  0  0  0  0  0  0
   -4.6534    0.9588   -0.2291 C   0  0  0  0  0  0  0  0  0  0  0  0
   -2.0292   -2.4322    0.1024 C   0  0  0  0  0  0  0  0  0  0  0  0
   -4.2126   -1.2913   -0.1872 C   0  0  0  0  0  0  0  0  0  0  0  0
   -0.9762    0.3728    0.2707 C   0  0  0  0  0  0  0  0  0  0  0  0
   -5.6015    2.1179   -0.3494 C   0  0  0  0  0  0  0  0  0  0  0  0
    3.6460   -0.0076   -0.1846 C   0  0  0  0  0  0  0  0  0  0  0  0
    2.2569   -0.4917   -0.3987 C   0  0  0  0  0  0  0  0  0  0  0  0
    4.6911   -0.7345   -0.7024 C   0  0  0  0  0  0  0  0  0  0  0  0
    3.8442    1.1527    0.5248 C   0  0  0  0  0  0  0  0  0  0  0  0
    5.9660   -0.2412   -0.4758 C   0  0  0  0  0  0  0  0  0  0  0  0
    5.1570    1.5616    0.6965 C   0  0  0  0  0  0  0  0  0  0  0  0
   -1.3100   -2.5004   -0.7222 H   0  0  0  0  0  0  0  0  0  0  0  0
   -2.6459   -3.3372    0.0432 H   0  0  0  0  0  0  0  0  0  0  0  0
   -4.6771   -2.2709   -0.2592 H   0  0  0  0  0  0  0  0  0  0  0  0
   -0.6180    1.3979    0.3127 H   0  0  0  0  0  0  0  0  0  0  0  0
   -5.5622    2.7196    0.5627 H   0  0  0  0  0  0  0  0  0  0  0  0
   -6.6251    1.7610   -0.4937 H   0  0  0  0  0  0  0  0  0  0  0  0
   -5.3185    2.7355   -1.2062 H   0  0  0  0  0  0  0  0  0  0  0  0
   -0.1032   -1.5089    0.4932 H   0  0  0  0  0  0  0  0  0  0  0  0
    1.5371    0.3910    1.4172 H   0  0  0  0  0  0  0  0  0  0  0  0
    4.5519   -1.6535   -1.2596 H   0  0  0  0  0  0  0  0  0  0  0  0
    3.0462    1.7665    0.9241 H   0  0  0  0  0  0  0  0  0  0  0  0
   -0.9130   -3.3033    1.4282 H   0  0  0  0  0  0  0  0  0  0  0  0
    6.8389   -0.7634   -0.8537 H   0  0  0  0  0  0  0  0  0  0  0  0
    5.3891    2.4718    1.2399 H   0  0  0  0  0  0  0  0  0  0  0  0
  1 12  1  0  0  0  0
  1 33  1  0  0  0  0
  2 10  2  0  0  0  0
  3 17  2  0  0  0  0
  4 11  2  0  0  0  0
  4 13  1  0  0  0  0
  5  6  1  0  0  0  0
  5 14  1  0  0  0  0
  5 29  1  0  0  0  0
  6 17  1  0  0  0  0
  6 30  1  0  0  0  0
  7 20  2  0  0  0  0
  7 21  1  0  0  0  0
  8  9  1  0  0  0  0
  8 10  1  0  0  0  0
  8 14  2  0  0  0  0
  9 12  1  0  0  0  0
  9 13  2  0  0  0  0
 10 11  1  0  0  0  0
 11 15  1  0  0  0  0
 12 22  1  0  0  0  0
 12 23  1  0  0  0  0
 13 24  1  0  0  0  0
 14 25  1  0  0  0  0
 15 26  1  0  0  0  0
 15 27  1  0  0  0  0
 15 28  1  0  0  0  0
 16 17  1  0  0  0  0
 16 18  2  0  0  0  0
 16 19  1  0  0  0  0
 18 20  1  0  0  0  0
 18 31  1  0  0  0  0
 19 21  2  0  0  0  0
 19 32  1  0  0  0  0
 20 34  1  0  0  0  0
 21 35  1  0  0  0  0
M  END
> <PUBCHEM_COMPOUND_CID>
5357451

> <PUBCHEM_CONFORMER_RMSD>
0.8

> <PUBCHEM_CONFORMER_DIVERSEORDER>
2
13
15
16
1
14
12
4
5
7
9
8
11
6
3
10

> <PUBCHEM_MMFF94_PARTIAL_CHARGES>
30
1 -0.68
10 0.56
11 0.39
12 0.42
13 0.02
14 -0.05
15 0.06
16 0.09
17 0.54
18 -0.15
19 -0.15
2 -0.57
20 0.16
21 0.16
24 0.15
25 0.15
29 0.4
3 -0.57
30 0.37
31 0.15
32 0.15
33 0.4
34 0.15
35 0.15
4 -0.62
5 -0.52
6 -0.41
7 -0.62
8 0.01
9 -0.14

> <PUBCHEM_EFFECTIVE_ROTOR_COUNT>
5

> <PUBCHEM_PHARMACOPHORE_FEATURES>
10
1 1 acceptor
1 1 donor
1 2 acceptor
1 3 acceptor
1 4 acceptor
1 5 donor
1 6 donor
1 7 acceptor
6 4 8 9 10 11 13 rings
6 7 16 18 19 20 21 rings

> <PUBCHEM_HEAVY_ATOM_COUNT>
21

> <PUBCHEM_ATOM_DEF_STEREO_COUNT>
0

> <PUBCHEM_ATOM_UDEF_STEREO_COUNT>
0

> <PUBCHEM_BOND_DEF_STEREO_COUNT>
0

> <PUBCHEM_BOND_UDEF_STEREO_COUNT>
1

> <PUBCHEM_ISOTOPIC_ATOM_COUNT>
0

> <PUBCHEM_COMPONENT_COUNT>
1

> <PUBCHEM_CACTVS_TAUTO_COUNT>
11

> <PUBCHEM_CONFORMER_ID>
0051BF8B00000002

> <PUBCHEM_MMFF94_ENERGY>
64.5914

> <PUBCHEM_FEATURE_SELFOVERLAP>
52.283

> <PUBCHEM_SHAPE_FINGERPRINT>
10014705 185 18410855460397304129
10411042 1 17908421352029135107
10835480 77 18187652379661742192
11045977 3 18335139770015524508
11128504 68 13984664716134935496
11315181 36 17774721965675714078
11719270 70 17968098655849776110
12107183 9 17765159762494679666
12236239 1 17489590060688780738
12596602 18 16486966259565832264
13402501 40 18333733511385923648
13533116 47 18200600310168385338
13911987 19 16950558831931863592
14251764 38 18198059184177830396
15183329 4 18337106873685042994
15375358 24 18333447633962096726
15961568 22 18271524187791736724
17844677 252 18335976494064201952
19489759 90 18341895177582193710
200 152 16443060608004545283
20645477 56 18413105086999742077
20645477 70 17313375769297059302
20681677 155 18272090495680686531
21033648 29 18114192891292071456
23402539 116 18412549798956669327
23557571 272 18408035208851145916
23559900 14 18333455330728029672
2916195 48 18411140238119625289
300161 21 18342744030781895898
3004659 81 18341047523707456962
34797466 226 17822283549065230308
351380 180 18409167693058637860
3545911 37 18409164424256294196
4073 2 18201716207618342658
4214541 1 18409448085429400256
441001 317 18410575089200892809
5104073 3 18342735264627304923
5283173 99 18335984245968526936
542803 24 17132113537547036820
9709674 26 18334849524135749774
9981440 41 18272083898885967355

> <PUBCHEM_SHAPE_MULTIPOLES>
394.64
15.05
2.22
0.85
8.8
-5.53
1.24
-1.87
-4.28
4.08
3.5
4.63
14.74
-14.07

> <PUBCHEM_SHAPE_SELFOVERLAP>
842.301

> <PUBCHEM_SHAPE_VOLUME>
214.5

> <PUBCHEM_COORDINATE_TYPE>
2
5
255

$$$$

