12009279
  -OEChem-10021005533D

 44 49  0     0  0  0  0  0  0999 V2000
    1.8518   -1.0487    0.2682 S   0  0  0  0  0  0  0  0  0  0  0  0
   -1.8518    1.0487    0.2682 S   0  0  0  0  0  0  0  0  0  0  0  0
    5.6775    0.7450   -0.2453 S   0  0  0  0  0  0  0  0  0  0  0  0
   -5.6775   -0.7450   -0.2453 S   0  0  0  0  0  0  0  0  0  0  0  0
    9.2418   -1.3467   -1.2635 S   0  0  0  0  0  0  0  0  0  0  0  0
   -9.2419    1.3467   -1.2636 S   0  0  0  0  0  0  0  0  0  0  0  0
    0.6069    2.4713    1.2611 F   0  0  0  0  0  0  0  0  0  0  0  0
   -0.6068   -2.4713    1.2611 F   0  0  0  0  0  0  0  0  0  0  0  0
    3.4980    2.3549    1.0638 F   0  0  0  0  0  0  0  0  0  0  0  0
   -3.4980   -2.3549    1.0638 F   0  0  0  0  0  0  0  0  0  0  0  0
    4.3006   -2.6691    0.9266 F   0  0  0  0  0  0  0  0  0  0  0  0
   -4.3005    2.6692    0.9265 F   0  0  0  0  0  0  0  0  0  0  0  0
    7.1382   -2.7837    0.3388 F   0  0  0  0  0  0  0  0  0  0  0  0
   -7.1383    2.7838    0.3388 F   0  0  0  0  0  0  0  0  0  0  0  0
    8.3148    2.1605    0.0656 F   0  0  0  0  0  0  0  0  0  0  0  0
   -8.3148   -2.1605    0.0656 F   0  0  0  0  0  0  0  0  0  0  0  0
   11.0519    2.0448   -0.9069 F   0  0  0  0  0  0  0  0  0  0  0  0
  -11.0518   -2.0448   -0.9069 F   0  0  0  0  0  0  0  0  0  0  0  0
   11.7442   -0.5596   -1.8956 F   0  0  0  0  0  0  0  0  0  0  0  0
  -11.7442    0.5595   -1.8956 F   0  0  0  0  0  0  0  0  0  0  0  0
    0.6928    0.1527    0.6494 C   0  0  0  0  0  0  0  0  0  0  0  0
   -0.6928   -0.1527    0.6495 C   0  0  0  0  0  0  0  0  0  0  0  0
    3.1446    0.0539    0.4822 C   0  0  0  0  0  0  0  0  0  0  0  0
   -3.1445   -0.0539    0.4823 C   0  0  0  0  0  0  0  0  0  0  0  0
    4.4883   -0.3616    0.2961 C   0  0  0  0  0  0  0  0  0  0  0  0
   -4.4883    0.3616    0.2961 C   0  0  0  0  0  0  0  0  0  0  0  0
    1.2800    1.3660    0.9331 C   0  0  0  0  0  0  0  0  0  0  0  0
   -1.2800   -1.3660    0.9331 C   0  0  0  0  0  0  0  0  0  0  0  0
    2.7004    1.3089    0.8361 C   0  0  0  0  0  0  0  0  0  0  0  0
   -2.7003   -1.3089    0.8362 C   0  0  0  0  0  0  0  0  0  0  0  0
    6.8946   -0.4587   -0.2026 C   0  0  0  0  0  0  0  0  0  0  0  0
   -6.8946    0.4587   -0.2026 C   0  0  0  0  0  0  0  0  0  0  0  0
    5.0094   -1.6197    0.5042 C   0  0  0  0  0  0  0  0  0  0  0  0
   -5.0094    1.6197    0.5042 C   0  0  0  0  0  0  0  0  0  0  0  0
    6.4034   -1.6760    0.2154 C   0  0  0  0  0  0  0  0  0  0  0  0
   -6.4034    1.6760    0.2155 C   0  0  0  0  0  0  0  0  0  0  0  0
    8.2297   -0.1514   -0.5715 C   0  0  0  0  0  0  0  0  0  0  0  0
   -8.2297    0.1514   -0.5715 C   0  0  0  0  0  0  0  0  0  0  0  0
    8.8733    1.0597   -0.4432 C   0  0  0  0  0  0  0  0  0  0  0  0
   -8.8733   -1.0597   -0.4431 C   0  0  0  0  0  0  0  0  0  0  0  0
   10.2152    1.0058   -0.9191 C   0  0  0  0  0  0  0  0  0  0  0  0
  -10.2151   -1.0059   -0.9191 C   0  0  0  0  0  0  0  0  0  0  0  0
   10.5460   -0.2445   -1.3931 C   0  0  0  0  0  0  0  0  0  0  0  0
  -10.5460    0.2445   -1.3931 C   0  0  0  0  0  0  0  0  0  0  0  0
  1 21  1  0  0  0  0
  1 23  1  0  0  0  0
  2 22  1  0  0  0  0
  2 24  1  0  0  0  0
  3 25  1  0  0  0  0
  3 31  1  0  0  0  0
  4 26  1  0  0  0  0
  4 32  1  0  0  0  0
  5 37  1  0  0  0  0
  5 43  1  0  0  0  0
  6 38  1  0  0  0  0
  6 44  1  0  0  0  0
  7 27  1  0  0  0  0
  8 28  1  0  0  0  0
  9 29  1  0  0  0  0
 10 30  1  0  0  0  0
 11 33  1  0  0  0  0
 12 34  1  0  0  0  0
 13 35  1  0  0  0  0
 14 36  1  0  0  0  0
 15 39  1  0  0  0  0
 16 40  1  0  0  0  0
 17 41  1  0  0  0  0
 18 42  1  0  0  0  0
 19 43  1  0  0  0  0
 20 44  1  0  0  0  0
 21 22  1  0  0  0  0
 21 27  2  0  0  0  0
 22 28  2  0  0  0  0
 23 25  1  0  0  0  0
 23 29  2  0  0  0  0
 24 26  1  0  0  0  0
 24 30  2  0  0  0  0
 25 33  2  0  0  0  0
 26 34  2  0  0  0  0
 27 29  1  0  0  0  0
 28 30  1  0  0  0  0
 31 35  2  0  0  0  0
 31 37  1  0  0  0  0
 32 36  2  0  0  0  0
 32 38  1  0  0  0  0
 33 35  1  0  0  0  0
 34 36  1  0  0  0  0
 37 39  2  0  0  0  0
 38 40  2  0  0  0  0
 39 41  1  0  0  0  0
 40 42  1  0  0  0  0
 41 43  2  0  0  0  0
 42 44  2  0  0  0  0
M  END
> <PUBCHEM_COMPOUND_CID>
12009279

> <PUBCHEM_CONFORMER_RMSD>
1

> <PUBCHEM_CONFORMER_DIVERSEORDER>
1
11
306
245
236
14
26
321
228
125
3
277
90
296
323
324
103
10
105
204
2
282
221
286
104
237
20
293
295
325
185
186
210
294
71
108
7
242
328
230
224
246
327
52
53
279
100
189
304
25
170
35
147
63
93
285
21
165
177
261
252
214
143
128
280
173
130
98
106
215
198
9
209
179
16
220
113
283
227
287
99
274
257
149
288
309
145
107
154
184
329
234
216
56
24
65
51
251
199
97
112
47
60
45
150
66
142
225
33
109
253
255
148
152
235
320
208
314
75
183
244
80
94
188
70
308
38
200
133
187
284
116
305
307
110
315
163
312
146
43
134
141
316
151
207
55
322
85
243
111
319
211
44
273
289
241
191
58
231
61
15
205
247
298
124
297
72
57
313
174
29
267
229
13
196
190
317
67
36
262
326
121
201
260
318
157
126
119
32
275
120
23
222
162
4
311
86
50
17
264
155
219
49
27
301
250
175
73
62
46
37
8
12
69
213
30
156
254
83
153
131
269
272
19
64
180
263
5
101
212
310
102
158
233
193
232
182
217
89
278
78
195
81
172
18
22
161
223
256
31
203
194
54
259
91
34
92
140
42
79
76
271
77
218
48
249
136
303
144
6
129
74
88
226
248
82
87
28
270
160
59
197
39
135
291
122
181
206
118
84
137
115
302
290
167
40
168
281
41
96
68
192
300
123
276
202
114
171
138
266
265
238
164
258
292
166
240
299
139
239
178
117
95
268
169
127
132
176
159

> <PUBCHEM_MMFF94_PARTIAL_CHARGES>
44
1 -0.08
10 -0.14
11 -0.14
12 -0.14
13 -0.14
14 -0.14
15 -0.14
16 -0.14
17 -0.14
18 -0.14
19 -0.14
2 -0.08
20 -0.14
21 0.04
22 0.04
23 0.04
24 0.04
25 0.04
26 0.04
27 0.14
28 0.14
29 0.14
3 -0.08
30 0.14
31 0.04
32 0.04
33 0.14
34 0.14
35 0.14
36 0.14
37 0.04
38 0.04
39 0.14
4 -0.08
40 0.14
41 0.14
42 0.14
43 0.18
44 0.18
5 -0.08
6 -0.08
7 -0.14
8 -0.14
9 -0.14

> <PUBCHEM_EFFECTIVE_ROTOR_COUNT>
5

> <PUBCHEM_PHARMACOPHORE_FEATURES>
6
5 1 21 23 27 29 rings
5 2 22 24 28 30 rings
5 3 25 31 33 35 rings
5 4 26 32 34 36 rings
5 5 37 39 41 43 rings
5 6 38 40 42 44 rings

> <PUBCHEM_HEAVY_ATOM_COUNT>
44

> <PUBCHEM_ATOM_DEF_STEREO_COUNT>
0

> <PUBCHEM_ATOM_UDEF_STEREO_COUNT>
0

> <PUBCHEM_BOND_DEF_STEREO_COUNT>
0

> <PUBCHEM_BOND_UDEF_STEREO_COUNT>
0

> <PUBCHEM_ISOTOPIC_ATOM_COUNT>
0

> <PUBCHEM_COMPONENT_COUNT>
1

> <PUBCHEM_CACTVS_TAUTO_COUNT>
1

> <PUBCHEM_CONFORMER_ID>
00B73F3F00000001

> <PUBCHEM_MMFF94_ENERGY>
48.069

> <PUBCHEM_FEATURE_SELFOVERLAP>
30.445

> <PUBCHEM_SHAPE_FINGERPRINT>
10533779 47 10159706785764794260
11135609 127 18129938980540271028
11408170 108 15719662252053446444
11456790 92 10807929379998572262
11534866 41 5112016032676062748
12013929 94 18334293158793954167
12089408 11 18338234967676426977
12522641 33 18261393373473470687
13947947 74 18412261744781190528
14344974 52 18271806783004785396
15065858 18 15647060390478776675
15183329 4 18410855503077835449
15247644 1 15719110262176056966
15300414 137 16272208591470517148
15343295 29 18272650131808165060
15461852 350 17967250905469594785
15890870 6 18410009936204243910
16728433 110 16298393448892742224
20105231 36 15864072082884924398
21895431 317 14345785094310818532
232437 2 17748825215525018124
335352 9 18410855468718096611
3991529 128 15410892972898739869
42767 2 18409167726975245445
4760202 170 17846491497091401084
4874694 18 18344145882934047666
6057620 51 18411982498227764137
636775 8 18334858291461414335
6673363 416 18408884053920317097
67123 10 18410573989446418501
9663363 56 18113903754663202274

> <PUBCHEM_SHAPE_MULTIPOLES>
826.76
46.63
2.52
1.25
0
0
30.11
-44.41
0
0
60.41
-1.42
0
0

> <PUBCHEM_SHAPE_SELFOVERLAP>
1808.825

> <PUBCHEM_SHAPE_VOLUME>
450.7

> <PUBCHEM_COORDINATE_TYPE>
2
5
255

$$$$

