11340899
  -OEChem-10021005533D

 44 49  0     0  0  0  0  0  0999 V2000
    1.8734    1.0118    0.3256 S   0  0  0  0  0  0  0  0  0  0  0  0
   -1.8733   -1.0118    0.3257 S   0  0  0  0  0  0  0  0  0  0  0  0
    5.6627   -0.8587   -0.1899 S   0  0  0  0  0  0  0  0  0  0  0  0
   -5.6626    0.8587   -0.1899 S   0  0  0  0  0  0  0  0  0  0  0  0
    9.2685    1.1630   -1.2063 S   0  0  0  0  0  0  0  0  0  0  0  0
   -9.2686   -1.1629   -1.2064 S   0  0  0  0  0  0  0  0  0  0  0  0
    0.6898   -0.1655    0.7071 C   0  0  0  0  0  0  0  0  0  0  0  0
   -0.6898    0.1655    0.7071 C   0  0  0  0  0  0  0  0  0  0  0  0
    3.1431   -0.1169    0.5403 C   0  0  0  0  0  0  0  0  0  0  0  0
   -3.1431    0.1168    0.5403 C   0  0  0  0  0  0  0  0  0  0  0  0
    4.4950    0.2703    0.3525 C   0  0  0  0  0  0  0  0  0  0  0  0
   -4.4950   -0.2703    0.3525 C   0  0  0  0  0  0  0  0  0  0  0  0
    1.2521   -1.3907    0.9911 C   0  0  0  0  0  0  0  0  0  0  0  0
   -1.2520    1.3907    0.9911 C   0  0  0  0  0  0  0  0  0  0  0  0
    2.6732   -1.3624    0.8945 C   0  0  0  0  0  0  0  0  0  0  0  0
   -2.6733    1.3623    0.8946 C   0  0  0  0  0  0  0  0  0  0  0  0
    6.9026    0.3214   -0.1474 C   0  0  0  0  0  0  0  0  0  0  0  0
   -6.9026   -0.3214   -0.1474 C   0  0  0  0  0  0  0  0  0  0  0  0
    5.0403    1.5182    0.5610 C   0  0  0  0  0  0  0  0  0  0  0  0
   -5.0403   -1.5182    0.5609 C   0  0  0  0  0  0  0  0  0  0  0  0
    6.4351    1.5477    0.2712 C   0  0  0  0  0  0  0  0  0  0  0  0
   -6.4350   -1.5477    0.2713 C   0  0  0  0  0  0  0  0  0  0  0  0
    8.2318   -0.0117   -0.5153 C   0  0  0  0  0  0  0  0  0  0  0  0
   -8.2317    0.0118   -0.5153 C   0  0  0  0  0  0  0  0  0  0  0  0
    8.8504   -1.2359   -0.3870 C   0  0  0  0  0  0  0  0  0  0  0  0
   -8.8504    1.2358   -0.3869 C   0  0  0  0  0  0  0  0  0  0  0  0
   10.1934   -1.2089   -0.8620 C   0  0  0  0  0  0  0  0  0  0  0  0
  -10.1934    1.2089   -0.8620 C   0  0  0  0  0  0  0  0  0  0  0  0
   10.5500    0.0346   -1.3355 C   0  0  0  0  0  0  0  0  0  0  0  0
  -10.5500   -0.0346   -1.3354 C   0  0  0  0  0  0  0  0  0  0  0  0
    0.6936   -2.2766    1.2674 H   0  0  0  0  0  0  0  0  0  0  0  0
   -0.6935    2.2766    1.2673 H   0  0  0  0  0  0  0  0  0  0  0  0
    3.2986   -2.2248    1.0901 H   0  0  0  0  0  0  0  0  0  0  0  0
   -3.2987    2.2246    1.0902 H   0  0  0  0  0  0  0  0  0  0  0  0
    4.4892    2.3813    0.9137 H   0  0  0  0  0  0  0  0  0  0  0  0
   -4.4892   -2.3813    0.9137 H   0  0  0  0  0  0  0  0  0  0  0  0
    7.0456    2.4353    0.3828 H   0  0  0  0  0  0  0  0  0  0  0  0
   -7.0456   -2.4352    0.3829 H   0  0  0  0  0  0  0  0  0  0  0  0
    8.3870   -2.1206    0.0318 H   0  0  0  0  0  0  0  0  0  0  0  0
   -8.3869    2.1207    0.0320 H   0  0  0  0  0  0  0  0  0  0  0  0
   10.8647   -2.0577   -0.8550 H   0  0  0  0  0  0  0  0  0  0  0  0
  -10.8645    2.0579   -0.8550 H   0  0  0  0  0  0  0  0  0  0  0  0
   11.5019    0.3345   -1.7505 H   0  0  0  0  0  0  0  0  0  0  0  0
  -11.5019   -0.3345   -1.7504 H   0  0  0  0  0  0  0  0  0  0  0  0
  1  7  1  0  0  0  0
  1  9  1  0  0  0  0
  2  8  1  0  0  0  0
  2 10  1  0  0  0  0
  3 11  1  0  0  0  0
  3 17  1  0  0  0  0
  4 12  1  0  0  0  0
  4 18  1  0  0  0  0
  5 23  1  0  0  0  0
  5 29  1  0  0  0  0
  6 24  1  0  0  0  0
  6 30  1  0  0  0  0
  7  8  1  0  0  0  0
  7 13  2  0  0  0  0
  8 14  2  0  0  0  0
  9 11  1  0  0  0  0
  9 15  2  0  0  0  0
 10 12  1  0  0  0  0
 10 16  2  0  0  0  0
 11 19  2  0  0  0  0
 12 20  2  0  0  0  0
 13 15  1  0  0  0  0
 13 31  1  0  0  0  0
 14 16  1  0  0  0  0
 14 32  1  0  0  0  0
 15 33  1  0  0  0  0
 16 34  1  0  0  0  0
 17 21  2  0  0  0  0
 17 23  1  0  0  0  0
 18 22  2  0  0  0  0
 18 24  1  0  0  0  0
 19 21  1  0  0  0  0
 19 35  1  0  0  0  0
 20 22  1  0  0  0  0
 20 36  1  0  0  0  0
 21 37  1  0  0  0  0
 22 38  1  0  0  0  0
 23 25  2  0  0  0  0
 24 26  2  0  0  0  0
 25 27  1  0  0  0  0
 25 39  1  0  0  0  0
 26 28  1  0  0  0  0
 26 40  1  0  0  0  0
 27 29  2  0  0  0  0
 27 41  1  0  0  0  0
 28 30  2  0  0  0  0
 28 42  1  0  0  0  0
 29 43  1  0  0  0  0
 30 44  1  0  0  0  0
M  END
> <PUBCHEM_COMPOUND_CID>
11340899

> <PUBCHEM_CONFORMER_RMSD>
0.8

> <PUBCHEM_CONFORMER_DIVERSEORDER>
1
161
160
17
97
65
22
50
29
146
156
162
4
129
130
124
6
18
93
3
149
110
2
66
51
28
76
70
125
112
90
9
139
59
154
123
60
62
27
104
142
40
152
87
61
58
39
122
42
137
88
34
46
13
108
92
153
111
47
5
52
150
127
144
67
119
151
37
128
53
134
74
121
79
91
84
141
19
117
85
118
24
113
23
41
44
140
102
116
77
72
148
20
114
14
45
83
12
159
25
8
78
107
73
36
80
31
126
15
98
138
64
33
109
68
115
38
26
16
11
7
89
48
155
49
63
86
158
103
145
10
56
75
32
157
101
69
30
99
54
35
95
71
147
132
57
135
105
143
106
96
55
131
133
120
94
43
21
136
100
81
82

> <PUBCHEM_MMFF94_PARTIAL_CHARGES>
44
1 -0.08
10 0.04
11 0.04
12 0.04
13 -0.15
14 -0.15
15 -0.15
16 -0.15
17 0.04
18 0.04
19 -0.15
2 -0.08
20 -0.15
21 -0.15
22 -0.15
23 0.04
24 0.04
25 -0.15
26 -0.15
27 -0.15
28 -0.15
29 -0.11
3 -0.08
30 -0.11
31 0.15
32 0.15
33 0.15
34 0.15
35 0.15
36 0.15
37 0.15
38 0.15
39 0.15
4 -0.08
40 0.15
41 0.15
42 0.15
43 0.15
44 0.15
5 -0.08
6 -0.08
7 0.04
8 0.04
9 0.04

> <PUBCHEM_EFFECTIVE_ROTOR_COUNT>
5

> <PUBCHEM_PHARMACOPHORE_FEATURES>
6
5 1 7 9 13 15 rings
5 2 8 10 14 16 rings
5 3 11 17 19 21 rings
5 4 12 18 20 22 rings
5 5 23 25 27 29 rings
5 6 24 26 28 30 rings

> <PUBCHEM_HEAVY_ATOM_COUNT>
30

> <PUBCHEM_ATOM_DEF_STEREO_COUNT>
0

> <PUBCHEM_ATOM_UDEF_STEREO_COUNT>
0

> <PUBCHEM_BOND_DEF_STEREO_COUNT>
0

> <PUBCHEM_BOND_UDEF_STEREO_COUNT>
0

> <PUBCHEM_ISOTOPIC_ATOM_COUNT>
0

> <PUBCHEM_COMPONENT_COUNT>
1

> <PUBCHEM_CACTVS_TAUTO_COUNT>
1

> <PUBCHEM_CONFORMER_ID>
00AD0C6300000001

> <PUBCHEM_MMFF94_ENERGY>
46.0961

> <PUBCHEM_FEATURE_SELFOVERLAP>
30.445

> <PUBCHEM_SHAPE_FINGERPRINT>
10 15 9871750183201176208
10533779 47 10159428673299317269
10625338 86 14979963557840719198
10883706 142 14477242670046522195
11409948 35 15769226063544743426
11456790 92 11167938087420449591
11534866 41 4750879230829830340
12089408 11 15698005115074676657
12498461 61 5545191723069806853
12522641 33 18202282519956689482
13740195 50 8718823193831512701
13947947 74 18411700989519257691
14117953 113 18059852861756874580
14118638 360 17489033768351646465
14251764 46 18409729564553313783
14344974 52 17275099497306312629
14428016 248 16128654154372390981
150020 25 18410856533869992704
15061470 23 16917068858558267540
15065858 18 17968101897663373793
15247644 1 15719391732820877063
15461852 350 18341608209758938948
15510794 2 17967814937707379967
155225 1 16128656353295374125
15706992 2 14764342756122696965
15773216 30 17987804141465447858
15840311 113 18337675218102213580
15890870 6 18407760335208047055
16728433 110 15936416632910796688
1754911 235 18343303656367229343
20156587 128 18338516455538032649
21095086 128 16950280706828923906
21095123 145 15769769136252160393
21102433 48 15864072091933932046
21360443 89 8069734201778661381
21362267 20 6843915071117438933
21792961 116 18259701199624108371
232437 2 17967251992560570511
3092352 35 17168145612966198743
335352 9 18410575080368111689
3991529 128 15195278742196020119
42767 2 18408604777148541663
4325135 7 18410575080368111643
4339292 15 15791731919054551849
4625314 4 18338235964114114034
6081469 158 18272088310349499756
636775 8 18187083924293236383
6523845 18 15574718010149893094
9663363 56 18259705598076853056
9937071 3 13840261481513595452

> <PUBCHEM_SHAPE_MULTIPOLES>
640.48
43
1.62
1.14
0
0
-24.77
36.7
0
0
-48.14
0.88
0
0

> <PUBCHEM_SHAPE_SELFOVERLAP>
1368.318

> <PUBCHEM_SHAPE_VOLUME>
356.1

> <PUBCHEM_COORDINATE_TYPE>
2
5
255

$$$$

