147895
  -OEChem-10021002512D

116121  0     1  0  0  0  0  0999 V2000
    5.1483   -6.0952    0.0000 O   0  0  0  0  0  0  0  0  0  0  0  0
    6.3178   -4.4857    0.0000 O   0  0  0  0  0  0  0  0  0  0  0  0
    7.0057   -3.6333    0.0000 O   0  0  0  0  0  0  0  0  0  0  0  0
    7.4821   -2.2868    0.0000 O   0  0  0  0  0  0  0  0  0  0  0  0
    2.4962   -3.4386    0.0000 O   0  0  0  0  0  0  0  0  0  0  0  0
    3.5446   -0.6558    0.0000 O   0  0  0  0  0  0  0  0  0  0  0  0
    2.8690   -2.2868    0.0000 O   0  0  0  0  0  0  0  0  0  0  0  0
    7.5875    0.1252    0.0000 O   0  0  0  0  0  0  0  0  0  0  0  0
    7.6038   -5.6460    0.0000 O   0  0  0  0  0  0  0  0  0  0  0  0
    8.4245   -2.6398    0.0000 O   0  0  0  0  0  0  0  0  0  0  0  0
    4.7693    0.5689    0.0000 O   0  0  0  0  0  0  0  0  0  0  0  0
    6.3628    1.3499    0.0000 O   0  0  0  0  0  0  0  0  0  0  0  0
    9.0017    1.5394    0.0000 O   0  0  0  0  0  0  0  0  0  0  0  0
    5.5863    4.2477    0.0000 O   0  0  0  0  0  0  0  0  0  0  0  0
    7.2593    4.6960    0.0000 O   0  0  0  0  0  0  0  0  0  0  0  0
    6.8110    3.0229    0.0000 N   0  0  0  0  0  0  0  0  0  0  0  0
    5.1755   -3.5934    0.0000 C   0  0  2  0  0  0  0  0  0  0  0  0
    5.3274   -4.6239    0.0000 C   0  0  2  0  0  0  0  0  0  0  0  0
    4.2517   -3.2107    0.0000 C   0  0  1  0  0  0  0  0  0  0  0  0
    4.5059   -5.2643    0.0000 C   0  0  1  0  0  0  0  0  0  0  0  0
    6.0994   -3.2107    0.0000 C   0  0  1  0  0  0  0  0  0  0  0  0
    6.4821   -2.2868    0.0000 C   0  0  2  0  0  0  0  0  0  0  0  0
    3.4156   -3.8320    0.0000 C   0  0  2  0  0  0  0  0  0  0  0  0
    3.5436   -4.8657    0.0000 C   0  0  0  0  0  0  0  0  0  0  0  0
    6.0994   -1.3629    0.0000 C   0  0  0  0  0  0  0  0  0  0  0  0
    5.9766   -5.4495    0.0000 C   0  0  0  0  0  0  0  0  0  0  0  0
    3.8690   -2.2868    0.0000 C   0  0  0  0  0  0  0  0  0  0  0  0
    7.1552   -1.5451    0.0000 C   0  0  0  0  0  0  0  0  0  0  0  0
    5.1755   -0.9802    0.0000 C   0  0  0  0  0  0  0  0  0  0  0  0
    3.3278   -2.8280    0.0000 C   0  0  0  0  0  0  0  0  0  0  0  0
    4.2517   -1.3629    0.0000 C   0  0  1  0  0  0  0  0  0  0  0  0
    6.8804   -0.5819    0.0000 C   0  0  1  0  0  0  0  0  0  0  0  0
    5.9172   -0.3071    0.0000 C   0  0  0  0  0  0  0  0  0  0  0  0
    6.3971   -0.2521    0.0000 C   0  0  0  0  0  0  0  0  0  0  0  0
    7.2102   -1.0653    0.0000 C   0  0  0  0  0  0  0  0  0  0  0  0
    5.6897    0.6667    0.0000 C   0  0  0  0  0  0  0  0  0  0  0  0
    6.6259   -5.4371    0.0000 C   0  0  0  0  0  0  0  0  0  0  0  0
    8.0019   -3.5462    0.0000 C   0  0  0  0  0  0  0  0  0  0  0  0
    5.9560   -6.1795    0.0000 C   0  0  0  0  0  0  0  0  0  0  0  0
    3.8034    0.3101    0.0000 C   0  0  0  0  0  0  0  0  0  0  0  0
    7.3287    1.0911    0.0000 C   0  0  0  0  0  0  0  0  0  0  0  0
    8.5755   -4.3653    0.0000 C   0  0  0  0  0  0  0  0  0  0  0  0
    8.0358    1.7982    0.0000 C   0  0  1  0  0  0  0  0  0  0  0  0
    3.0963    1.0172    0.0000 C   0  0  0  0  0  0  0  0  0  0  0  0
    8.1530   -5.2716    0.0000 C   0  0  0  0  0  0  0  0  0  0  0  0
    9.5717   -4.2781    0.0000 C   0  0  0  0  0  0  0  0  0  0  0  0
    7.7770    2.7641    0.0000 C   0  0  2  0  0  0  0  0  0  0  0  0
    8.7266   -6.0908    0.0000 C   0  0  0  0  0  0  0  0  0  0  0  0
   10.1453   -5.0972    0.0000 C   0  0  0  0  0  0  0  0  0  0  0  0
    9.7228   -6.0035    0.0000 C   0  0  0  0  0  0  0  0  0  0  0  0
    8.4841    3.4712    0.0000 C   0  0  0  0  0  0  0  0  0  0  0  0
    8.2253    4.4372    0.0000 C   0  0  0  0  0  0  0  0  0  0  0  0
    9.4500    3.2124    0.0000 C   0  0  0  0  0  0  0  0  0  0  0  0
    6.5522    3.9889    0.0000 C   0  0  0  0  0  0  0  0  0  0  0  0
    8.9324    5.1443    0.0000 C   0  0  0  0  0  0  0  0  0  0  0  0
   10.1571    3.9195    0.0000 C   0  0  0  0  0  0  0  0  0  0  0  0
    9.8983    4.8854    0.0000 C   0  0  0  0  0  0  0  0  0  0  0  0
    5.3275    5.2136    0.0000 C   0  0  0  0  0  0  0  0  0  0  0  0
    5.0687    6.1795    0.0000 C   0  0  0  0  0  0  0  0  0  0  0  0
    4.3616    4.9548    0.0000 C   0  0  0  0  0  0  0  0  0  0  0  0
    6.2934    5.4724    0.0000 C   0  0  0  0  0  0  0  0  0  0  0  0
    5.9608   -3.9186    0.0000 H   0  0  0  0  0  0  0  0  0  0  0  0
    3.9897   -5.9396    0.0000 H   0  0  0  0  0  0  0  0  0  0  0  0
    6.0859   -3.8305    0.0000 H   0  0  0  0  0  0  0  0  0  0  0  0
    3.3430   -3.2162    0.0000 H   0  0  0  0  0  0  0  0  0  0  0  0
    2.9243   -4.8355    0.0000 H   0  0  0  0  0  0  0  0  0  0  0  0
    3.4078   -5.4707    0.0000 H   0  0  0  0  0  0  0  0  0  0  0  0
    6.3585   -5.9379    0.0000 H   0  0  0  0  0  0  0  0  0  0  0  0
    6.4645   -5.0669    0.0000 H   0  0  0  0  0  0  0  0  0  0  0  0
    7.5297   -2.0392    0.0000 H   0  0  0  0  0  0  0  0  0  0  0  0
    7.7099   -1.2681    0.0000 H   0  0  0  0  0  0  0  0  0  0  0  0
    3.5650   -2.2552    0.0000 H   0  0  0  0  0  0  0  0  0  0  0  0
    2.7550   -2.5907    0.0000 H   0  0  0  0  0  0  0  0  0  0  0  0
    3.0905   -3.4008    0.0000 H   0  0  0  0  0  0  0  0  0  0  0  0
    4.3726   -0.7548    0.0000 H   0  0  0  0  0  0  0  0  0  0  0  0
    7.4806   -0.7376    0.0000 H   0  0  0  0  0  0  0  0  0  0  0  0
    7.3707   -1.6642    0.0000 H   0  0  0  0  0  0  0  0  0  0  0  0
    7.8091   -0.9048    0.0000 H   0  0  0  0  0  0  0  0  0  0  0  0
    7.0498   -0.4664    0.0000 H   0  0  0  0  0  0  0  0  0  0  0  0
    6.9959   -0.4126    0.0000 H   0  0  0  0  0  0  0  0  0  0  0  0
    6.5575    0.3468    0.0000 H   0  0  0  0  0  0  0  0  0  0  0  0
    5.7982   -0.0916    0.0000 H   0  0  0  0  0  0  0  0  0  0  0  0
    7.7921   -1.7499    0.0000 H   0  0  0  0  0  0  0  0  0  0  0  0
    2.0000   -3.8104    0.0000 H   0  0  0  0  0  0  0  0  0  0  0  0
    6.2935    0.8077    0.0000 H   0  0  0  0  0  0  0  0  0  0  0  0
    5.5487    1.2704    0.0000 H   0  0  0  0  0  0  0  0  0  0  0  0
    5.0860    0.5256    0.0000 H   0  0  0  0  0  0  0  0  0  0  0  0
    5.4957   -5.7642    0.0000 H   0  0  0  0  0  0  0  0  0  0  0  0
    5.5406   -6.6399    0.0000 H   0  0  0  0  0  0  0  0  0  0  0  0
    6.4163   -6.5949    0.0000 H   0  0  0  0  0  0  0  0  0  0  0  0
    8.4742    2.2366    0.0000 H   0  0  0  0  0  0  0  0  0  0  0  0
    3.5347    1.4556    0.0000 H   0  0  0  0  0  0  0  0  0  0  0  0
    2.6579    1.4556    0.0000 H   0  0  0  0  0  0  0  0  0  0  0  0
    2.6579    0.5788    0.0000 H   0  0  0  0  0  0  0  0  0  0  0  0
    7.5353   -5.3257    0.0000 H   0  0  0  0  0  0  0  0  0  0  0  0
    9.8337   -3.7161    0.0000 H   0  0  0  0  0  0  0  0  0  0  0  0
    7.6165    3.3630    0.0000 H   0  0  0  0  0  0  0  0  0  0  0  0
    8.4646   -6.6527    0.0000 H   0  0  0  0  0  0  0  0  0  0  0  0
   10.7630   -5.0431    0.0000 H   0  0  0  0  0  0  0  0  0  0  0  0
    9.1622    0.9405    0.0000 H   0  0  0  0  0  0  0  0  0  0  0  0
   10.0784   -6.5114    0.0000 H   0  0  0  0  0  0  0  0  0  0  0  0
    6.3726    2.5845    0.0000 H   0  0  0  0  0  0  0  0  0  0  0  0
    7.6264    4.5976    0.0000 H   0  0  0  0  0  0  0  0  0  0  0  0
    9.6105    2.6135    0.0000 H   0  0  0  0  0  0  0  0  0  0  0  0
    8.7719    5.7431    0.0000 H   0  0  0  0  0  0  0  0  0  0  0  0
   10.7560    3.7590    0.0000 H   0  0  0  0  0  0  0  0  0  0  0  0
   10.3367    5.3238    0.0000 H   0  0  0  0  0  0  0  0  0  0  0  0
    6.4539    4.8736    0.0000 H   0  0  0  0  0  0  0  0  0  0  0  0
    6.8923    5.6329    0.0000 H   0  0  0  0  0  0  0  0  0  0  0  0
    6.1330    6.0713    0.0000 H   0  0  0  0  0  0  0  0  0  0  0  0
    4.2011    5.5537    0.0000 H   0  0  0  0  0  0  0  0  0  0  0  0
    3.7627    4.7943    0.0000 H   0  0  0  0  0  0  0  0  0  0  0  0
    4.5220    4.3559    0.0000 H   0  0  0  0  0  0  0  0  0  0  0  0
    5.6675    6.3400    0.0000 H   0  0  0  0  0  0  0  0  0  0  0  0
    4.9082    6.7784    0.0000 H   0  0  0  0  0  0  0  0  0  0  0  0
    4.4698    6.0191    0.0000 H   0  0  0  0  0  0  0  0  0  0  0  0
  1 20  1  0  0  0  0
  1 26  1  0  0  0  0
 18  2  1  1  0  0  0
  2 37  1  0  0  0  0
 21  3  1  1  0  0  0
  3 38  1  0  0  0  0
 22  4  1  6  0  0  0
  4 83  1  0  0  0  0
 23  5  1  6  0  0  0
  5 84  1  0  0  0  0
 31  6  1  6  0  0  0
  6 40  1  0  0  0  0
  7 27  2  0  0  0  0
 32  8  1  1  0  0  0
  8 41  1  0  0  0  0
  9 37  2  0  0  0  0
 10 38  2  0  0  0  0
 11 40  2  0  0  0  0
 12 41  2  0  0  0  0
 43 13  1  1  0  0  0
 13100  1  0  0  0  0
 14 54  1  0  0  0  0
 14 58  1  0  0  0  0
 15 54  2  0  0  0  0
 47 16  1  1  0  0  0
 16 54  1  0  0  0  0
 16102  1  0  0  0  0
 17 18  1  0  0  0  0
 17 19  1  0  0  0  0
 17 21  1  0  0  0  0
 17 62  1  1  0  0  0
 18 20  1  0  0  0  0
 18 26  1  0  0  0  0
 19 23  1  0  0  0  0
 19 27  1  0  0  0  0
 19 30  1  6  0  0  0
 20 24  1  0  0  0  0
 20 63  1  1  0  0  0
 21 22  1  0  0  0  0
 21 64  1  0  0  0  0
 22 25  1  0  0  0  0
 22 28  1  0  0  0  0
 23 24  1  0  0  0  0
 23 65  1  0  0  0  0
 24 66  1  0  0  0  0
 24 67  1  0  0  0  0
 25 29  1  0  0  0  0
 25 34  1  0  0  0  0
 25 35  1  0  0  0  0
 26 68  1  0  0  0  0
 26 69  1  0  0  0  0
 27 31  1  0  0  0  0
 28 32  1  0  0  0  0
 28 70  1  0  0  0  0
 28 71  1  0  0  0  0
 29 31  1  0  0  0  0
 29 33  2  0  0  0  0
 30 72  1  0  0  0  0
 30 73  1  0  0  0  0
 30 74  1  0  0  0  0
 31 75  1  0  0  0  0
 32 33  1  0  0  0  0
 32 76  1  0  0  0  0
 33 36  1  0  0  0  0
 34 80  1  0  0  0  0
 34 81  1  0  0  0  0
 34 82  1  0  0  0  0
 35 77  1  0  0  0  0
 35 78  1  0  0  0  0
 35 79  1  0  0  0  0
 36 85  1  0  0  0  0
 36 86  1  0  0  0  0
 36 87  1  0  0  0  0
 37 39  1  0  0  0  0
 38 42  1  0  0  0  0
 39 88  1  0  0  0  0
 39 89  1  0  0  0  0
 39 90  1  0  0  0  0
 40 44  1  0  0  0  0
 41 43  1  0  0  0  0
 42 45  2  0  0  0  0
 42 46  1  0  0  0  0
 43 47  1  0  0  0  0
 43 91  1  0  0  0  0
 44 92  1  0  0  0  0
 44 93  1  0  0  0  0
 44 94  1  0  0  0  0
 45 48  1  0  0  0  0
 45 95  1  0  0  0  0
 46 49  2  0  0  0  0
 46 96  1  0  0  0  0
 47 51  1  0  0  0  0
 47 97  1  0  0  0  0
 48 50  2  0  0  0  0
 48 98  1  0  0  0  0
 49 50  1  0  0  0  0
 49 99  1  0  0  0  0
 50101  1  0  0  0  0
 51 52  2  0  0  0  0
 51 53  1  0  0  0  0
 52 55  1  0  0  0  0
 52103  1  0  0  0  0
 53 56  2  0  0  0  0
 53104  1  0  0  0  0
 55 57  2  0  0  0  0
 55105  1  0  0  0  0
 56 57  1  0  0  0  0
 56106  1  0  0  0  0
 57107  1  0  0  0  0
 58 59  1  0  0  0  0
 58 60  1  0  0  0  0
 58 61  1  0  0  0  0
 59114  1  0  0  0  0
 59115  1  0  0  0  0
 59116  1  0  0  0  0
 60111  1  0  0  0  0
 60112  1  0  0  0  0
 60113  1  0  0  0  0
 61108  1  0  0  0  0
 61109  1  0  0  0  0
 61110  1  0  0  0  0
M  END
> <PUBCHEM_COMPOUND_CID>
147895

> <PUBCHEM_COMPOUND_CANONICALIZED>
1

> <PUBCHEM_CACTVS_COMPLEXITY>
1770

> <PUBCHEM_CACTVS_HBOND_ACCEPTOR>
15

> <PUBCHEM_CACTVS_HBOND_DONOR>
4

> <PUBCHEM_CACTVS_ROTATABLE_BOND>
15

> <PUBCHEM_CACTVS_SUBSKEYS>
AAADcfB+PAAAAAAAAAAAAAAAAABIAAAAAAAyYMEAAAAaIACJQAAAHgAQCAAAD3zhmAYyCILABgCIAqDSGAKCAAAkAAAIiIFIDMkLNj6AtR2OcQhn9gEbqYfa7PzPgAAAAAAAAABCAAYQADCAAAAAAAAAAA==

> <PUBCHEM_NIST_INCHI>
InChI=1S/C45H55NO15/c1-23-28(58-39(53)33(50)32(26-16-12-10-13-17-26)46-40(54)61-41(4,5)6)21-45(55)37(59-38(52)27-18-14-11-15-19-27)35-43(9,29(49)20-30-44(35,22-56-30)60-25(3)48)36(51)34(57-24(2)47)31(23)42(45,7)8/h10-19,28-30,32-35,37,49-50,55H,20-22H2,1-9H3,(H,46,54)/t28-,29-,30+,32-,33+,34+,35-,37-,43+,44-,45+/m0/s1

> <PUBCHEM_NIST_INCHIKEY>
LEMYAXKYCOBYOJ-OAGWZNDDSA-N

> <PUBCHEM_XLOGP3>
2.2

> <PUBCHEM_EXACT_MASS>
849.35717

> <PUBCHEM_MOLECULAR_FORMULA>
C45H55NO15

> <PUBCHEM_MOLECULAR_WEIGHT>
849.9159

> <PUBCHEM_OPENEYE_CAN_SMILES>
CC1=C2C(C(=O)C3(C(CC4C(C3C(C(C2(C)C)(CC1OC(=O)C(C(C5=CC=CC=C5)NC(=O)OC(C)(C)C)O)O)OC(=O)C6=CC=CC=C6)(CO4)OC(=O)C)O)C)OC(=O)C

> <PUBCHEM_OPENEYE_ISO_SMILES>
CC1=C2[C@H](C(=O)[C@@]3([C@H](C[C@@H]4[C@]([C@H]3[C@@H]([C@@](C2(C)C)(C[C@@H]1OC(=O)[C@@H]([C@H](C5=CC=CC=C5)NC(=O)OC(C)(C)C)O)O)OC(=O)C6=CC=CC=C6)(CO4)OC(=O)C)O)C)OC(=O)C

> <PUBCHEM_CACTVS_TPSA>
231

> <PUBCHEM_MONOISOTOPIC_WEIGHT>
849.35717

> <PUBCHEM_TOTAL_CHARGE>
0

> <PUBCHEM_HEAVY_ATOM_COUNT>
61

> <PUBCHEM_ATOM_DEF_STEREO_COUNT>
11

> <PUBCHEM_ATOM_UDEF_STEREO_COUNT>
0

> <PUBCHEM_BOND_DEF_STEREO_COUNT>
0

> <PUBCHEM_BOND_UDEF_STEREO_COUNT>
0

> <PUBCHEM_ISOTOPIC_ATOM_COUNT>
0

> <PUBCHEM_COMPONENT_COUNT>
1

> <PUBCHEM_CACTVS_TAUTO_COUNT>
6

> <PUBCHEM_COORDINATE_TYPE>
1
3

> <PUBCHEM_BONDANNOTATIONS>
43  13  5
47  16  5
17  62  5
19  30  6
18  2  5
20  63  5
21  3  5
22  4  6
42  45  8
42  46  8
45  48  8
46  49  8
48  50  8
49  50  8
23  5  6
51  52  8
51  53  8
52  55  8
53  56  8
55  57  8
56  57  8
31  6  6
32  8  5

$$$$

