37056
  -OEChem-10021005362D

155161  0     1  0  0  0  0  0999 V2000
   16.6914    1.9446    0.0000 O   0  0  0  0  0  0  0  0  0  0  0  0
   15.5106    1.2656    0.0000 O   0  0  0  0  0  0  0  0  0  0  0  0
   18.2661    4.4332    0.0000 O   0  0  0  0  0  0  0  0  0  0  0  0
   16.9769    3.2764    0.0000 O   0  0  0  0  0  0  0  0  0  0  0  0
    8.4564   -0.1666    0.0000 O   0  0  0  0  0  0  0  0  0  0  0  0
    9.6348   -0.8497    0.0000 O   0  0  0  0  0  0  0  0  0  0  0  0
    7.5421   -0.5718    0.0000 O   0  0  0  0  0  0  0  0  0  0  0  0
   13.1833   -1.4883    0.0000 O   0  0  0  0  0  0  0  0  0  0  0  0
    7.2566   -1.9036    0.0000 O   0  0  0  0  0  0  0  0  0  0  0  0
    7.9244   -2.6479    0.0000 O   0  0  0  0  0  0  0  0  0  0  0  0
   11.8593    2.8988    0.0000 O   0  0  0  0  0  0  0  0  0  0  0  0
   10.6593   -5.3638    0.0000 O   0  0  0  0  0  0  0  0  0  0  0  0
   16.5263   -0.1375    0.0000 N   0  0  0  0  0  0  0  0  0  0  0  0
   18.4137    1.7605    0.0000 N   0  0  0  0  0  0  0  0  0  0  0  0
    9.4768    1.2329    0.0000 N   0  0  0  0  0  0  0  0  0  0  0  0
    5.6103   -1.3656    0.0000 N   0  0  0  0  0  0  0  0  0  0  0  0
   13.8906    0.0928    0.0000 N   0  0  0  0  0  0  0  0  0  0  0  0
    6.8404    1.0117    0.0000 N   0  0  0  0  0  0  0  0  0  0  0  0
   11.3577   -0.6717    0.0000 N   0  0  0  0  0  0  0  0  0  0  0  0
    6.6353   -3.8047    0.0000 N   0  0  0  0  0  0  0  0  0  0  0  0
    9.2763   -4.2399    0.0000 N   0  0  0  0  0  0  0  0  0  0  0  0
    4.6783   -5.8266    0.0000 N   0  0  0  0  0  0  0  0  0  0  0  0
    9.7956    4.2159    0.0000 N   0  0  0  0  0  0  0  0  0  0  0  0
   13.5821    3.0769    0.0000 N   0  0  0  0  0  0  0  0  0  0  0  0
   10.8161    5.6154    0.0000 N   0  0  0  0  0  0  0  0  0  0  0  0
    9.0938    5.7994    0.0000 N   0  0  0  0  0  0  0  0  0  0  0  0
   17.3932    0.3610    0.0000 C   0  0  3  0  0  0  0  0  0  0  0  0
   18.1352   -0.3094    0.0000 C   0  0  0  0  0  0  0  0  0  0  0  0
   17.7268   -1.2222    0.0000 C   0  0  0  0  0  0  0  0  0  0  0  0
   16.7325   -1.1160    0.0000 C   0  0  0  0  0  0  0  0  0  0  0  0
   18.6233    2.7383    0.0000 C   0  0  3  0  0  0  0  0  0  0  0  0
   17.4994    1.3554    0.0000 C   0  0  0  0  0  0  0  0  0  0  0  0
   19.2788    1.2590    0.0000 C   0  0  0  0  0  0  0  0  0  0  0  0
   19.6180    2.8411    0.0000 C   0  0  0  0  0  0  0  0  0  0  0  0
   20.0231    1.9269    0.0000 C   0  0  0  0  0  0  0  0  0  0  0  0
   14.8034   -0.3155    0.0000 C   0  0  3  0  0  0  0  0  0  0  0  0
   15.6134    0.2709    0.0000 C   0  0  0  0  0  0  0  0  0  0  0  0
   14.9062   -1.3102    0.0000 C   0  0  3  0  0  0  0  0  0  0  0  0
   10.3420    0.7314    0.0000 C   0  0  3  0  0  0  0  0  0  0  0  0
    5.8199   -0.3878    0.0000 C   0  0  3  0  0  0  0  0  0  0  0  0
   11.0863    1.3992    0.0000 C   0  0  0  0  0  0  0  0  0  0  0  0
    9.6865    2.2106    0.0000 C   0  0  0  0  0  0  0  0  0  0  0  0
   10.6812    2.3134    0.0000 C   0  0  0  0  0  0  0  0  0  0  0  0
    4.9547    0.1137    0.0000 C   0  0  0  0  0  0  0  0  0  0  0  0
    4.2104   -0.5541    0.0000 C   0  0  0  0  0  0  0  0  0  0  0  0
    4.6156   -1.4684    0.0000 C   0  0  0  0  0  0  0  0  0  0  0  0
    7.7546    1.4169    0.0000 C   0  0  3  0  0  0  0  0  0  0  0  0
   17.9554    3.4826    0.0000 C   0  0  0  0  0  0  0  0  0  0  0  0
    8.5626    0.8277    0.0000 C   0  0  0  0  0  0  0  0  0  0  0  0
   15.8191   -1.7185    0.0000 C   0  0  0  0  0  0  0  0  0  0  0  0
   10.4448   -0.2633    0.0000 C   0  0  0  0  0  0  0  0  0  0  0  0
    6.7341    0.0174    0.0000 C   0  0  0  0  0  0  0  0  0  0  0  0
   12.1677   -0.0853    0.0000 C   0  0  3  0  0  0  0  0  0  0  0  0
   14.0962   -1.8966    0.0000 C   0  0  0  0  0  0  0  0  0  0  0  0
   13.0805   -0.4936    0.0000 C   0  0  0  0  0  0  0  0  0  0  0  0
    6.2781   -2.1098    0.0000 C   0  0  0  0  0  0  0  0  0  0  0  0
    7.8609    2.4112    0.0000 C   0  0  0  0  0  0  0  0  0  0  0  0
    5.9674   -3.0604    0.0000 C   0  0  3  0  0  0  0  0  0  0  0  0
   12.0649    0.9094    0.0000 C   0  0  0  0  0  0  0  0  0  0  0  0
   15.9219   -2.7132    0.0000 C   0  0  0  0  0  0  0  0  0  0  0  0
    8.7751    2.8164    0.0000 C   0  0  0  0  0  0  0  0  0  0  0  0
    4.9889   -3.2666    0.0000 C   0  0  0  0  0  0  0  0  0  0  0  0
   12.8749    1.4958    0.0000 C   0  0  0  0  0  0  0  0  0  0  0  0
    4.6783   -4.2171    0.0000 C   0  0  0  0  0  0  0  0  0  0  0  0
    8.8814    3.8107    0.0000 C   0  0  0  0  0  0  0  0  0  0  0  0
    8.2816   -4.3428    0.0000 C   0  0  3  0  0  0  0  0  0  0  0  0
    7.6138   -3.5984    0.0000 C   0  0  0  0  0  0  0  0  0  0  0  0
    8.0720   -5.3205    0.0000 C   0  0  0  0  0  0  0  0  0  0  0  0
    3.7320   -4.5218    0.0000 C   0  0  0  0  0  0  0  0  0  0  0  0
    5.2619   -5.0218    0.0000 C   0  0  0  0  0  0  0  0  0  0  0  0
    8.9372   -5.8220    0.0000 C   0  0  0  0  0  0  0  0  0  0  0  0
   12.7721    2.4905    0.0000 C   0  0  0  0  0  0  0  0  0  0  0  0
    3.7320   -5.5218    0.0000 C   0  0  0  0  0  0  0  0  0  0  0  0
    9.6815   -5.1542    0.0000 C   0  0  0  0  0  0  0  0  0  0  0  0
    2.8660   -4.0218    0.0000 C   0  0  0  0  0  0  0  0  0  0  0  0
    2.8660   -6.0218    0.0000 C   0  0  0  0  0  0  0  0  0  0  0  0
    2.0000   -4.5218    0.0000 C   0  0  0  0  0  0  0  0  0  0  0  0
    2.0000   -5.5218    0.0000 C   0  0  0  0  0  0  0  0  0  0  0  0
    9.9018    5.2102    0.0000 C   0  0  0  0  0  0  0  0  0  0  0  0
   16.8738    0.6996    0.0000 H   0  0  0  0  0  0  0  0  0  0  0  0
   18.6716   -0.6203    0.0000 H   0  0  0  0  0  0  0  0  0  0  0  0
   18.5005    0.1916    0.0000 H   0  0  0  0  0  0  0  0  0  0  0  0
   17.5969   -1.8284    0.0000 H   0  0  0  0  0  0  0  0  0  0  0  0
   18.3162   -1.4148    0.0000 H   0  0  0  0  0  0  0  0  0  0  0  0
   16.1158   -1.1797    0.0000 H   0  0  0  0  0  0  0  0  0  0  0  0
   16.7314   -1.7360    0.0000 H   0  0  0  0  0  0  0  0  0  0  0  0
   18.0241    2.5789    0.0000 H   0  0  0  0  0  0  0  0  0  0  0  0
   18.9135    0.7581    0.0000 H   0  0  0  0  0  0  0  0  0  0  0  0
   19.7389    0.8434    0.0000 H   0  0  0  0  0  0  0  0  0  0  0  0
   20.2080    3.0317    0.0000 H   0  0  0  0  0  0  0  0  0  0  0  0
   19.4901    3.4478    0.0000 H   0  0  0  0  0  0  0  0  0  0  0  0
   20.3867    1.4247    0.0000 H   0  0  0  0  0  0  0  0  0  0  0  0
   20.5606    2.2360    0.0000 H   0  0  0  0  0  0  0  0  0  0  0  0
   14.3012   -0.6791    0.0000 H   0  0  0  0  0  0  0  0  0  0  0  0
    9.8214    0.3946    0.0000 H   0  0  0  0  0  0  0  0  0  0  0  0
   14.9700   -1.9269    0.0000 H   0  0  0  0  0  0  0  0  0  0  0  0
    6.3010   -0.7788    0.0000 H   0  0  0  0  0  0  0  0  0  0  0  0
   11.4499    0.8970    0.0000 H   0  0  0  0  0  0  0  0  0  0  0  0
   11.6238    1.7083    0.0000 H   0  0  0  0  0  0  0  0  0  0  0  0
    9.6875    2.8306    0.0000 H   0  0  0  0  0  0  0  0  0  0  0  0
    9.0700    2.2765    0.0000 H   0  0  0  0  0  0  0  0  0  0  0  0
   11.2711    2.5040    0.0000 H   0  0  0  0  0  0  0  0  0  0  0  0
   10.5533    2.9201    0.0000 H   0  0  0  0  0  0  0  0  0  0  0  0
    5.3200    0.6147    0.0000 H   0  0  0  0  0  0  0  0  0  0  0  0
    4.4947    0.5294    0.0000 H   0  0  0  0  0  0  0  0  0  0  0  0
    3.8468   -0.0519    0.0000 H   0  0  0  0  0  0  0  0  0  0  0  0
    3.6729   -0.8632    0.0000 H   0  0  0  0  0  0  0  0  0  0  0  0
    4.0256   -1.6589    0.0000 H   0  0  0  0  0  0  0  0  0  0  0  0
    4.7434   -2.0750    0.0000 H   0  0  0  0  0  0  0  0  0  0  0  0
    7.2536    1.7822    0.0000 H   0  0  0  0  0  0  0  0  0  0  0  0
   13.8268    0.7095    0.0000 H   0  0  0  0  0  0  0  0  0  0  0  0
   16.4375   -1.7629    0.0000 H   0  0  0  0  0  0  0  0  0  0  0  0
   15.9701   -1.1172    0.0000 H   0  0  0  0  0  0  0  0  0  0  0  0
   12.2314   -0.7020    0.0000 H   0  0  0  0  0  0  0  0  0  0  0  0
   13.7326   -1.3944    0.0000 H   0  0  0  0  0  0  0  0  0  0  0  0
   13.5940   -2.2602    0.0000 H   0  0  0  0  0  0  0  0  0  0  0  0
   14.4597   -2.3988    0.0000 H   0  0  0  0  0  0  0  0  0  0  0  0
    6.3394    1.3770    0.0000 H   0  0  0  0  0  0  0  0  0  0  0  0
    7.7119    3.0131    0.0000 H   0  0  0  0  0  0  0  0  0  0  0  0
    7.2423    2.3690    0.0000 H   0  0  0  0  0  0  0  0  0  0  0  0
   11.4214   -1.2884    0.0000 H   0  0  0  0  0  0  0  0  0  0  0  0
    5.7748   -3.6497    0.0000 H   0  0  0  0  0  0  0  0  0  0  0  0
   11.7941    1.4672    0.0000 H   0  0  0  0  0  0  0  0  0  0  0  0
   11.4686    0.7396    0.0000 H   0  0  0  0  0  0  0  0  0  0  0  0
   15.3051   -2.7770    0.0000 H   0  0  0  0  0  0  0  0  0  0  0  0
   15.9856   -3.3300    0.0000 H   0  0  0  0  0  0  0  0  0  0  0  0
   16.5386   -2.6495    0.0000 H   0  0  0  0  0  0  0  0  0  0  0  0
    8.9240    2.2145    0.0000 H   0  0  0  0  0  0  0  0  0  0  0  0
    9.3937    2.8586    0.0000 H   0  0  0  0  0  0  0  0  0  0  0  0
    4.9684   -2.6469    0.0000 H   0  0  0  0  0  0  0  0  0  0  0  0
    4.3751   -3.1792    0.0000 H   0  0  0  0  0  0  0  0  0  0  0  0
    6.4427   -4.3940    0.0000 H   0  0  0  0  0  0  0  0  0  0  0  0
   17.8520    4.8946    0.0000 H   0  0  0  0  0  0  0  0  0  0  0  0
   13.1457    0.9381    0.0000 H   0  0  0  0  0  0  0  0  0  0  0  0
   13.4712    1.6657    0.0000 H   0  0  0  0  0  0  0  0  0  0  0  0
    8.7324    4.4126    0.0000 H   0  0  0  0  0  0  0  0  0  0  0  0
    8.2628    3.7686    0.0000 H   0  0  0  0  0  0  0  0  0  0  0  0
    8.5048   -3.7643    0.0000 H   0  0  0  0  0  0  0  0  0  0  0  0
    7.4827   -5.1279    0.0000 H   0  0  0  0  0  0  0  0  0  0  0  0
    7.8189   -5.8865    0.0000 H   0  0  0  0  0  0  0  0  0  0  0  0
    5.8819   -5.0218    0.0000 H   0  0  0  0  0  0  0  0  0  0  0  0
    8.5719   -6.3230    0.0000 H   0  0  0  0  0  0  0  0  0  0  0  0
    9.3972   -6.2377    0.0000 H   0  0  0  0  0  0  0  0  0  0  0  0
    9.5873   -3.7036    0.0000 H   0  0  0  0  0  0  0  0  0  0  0  0
    4.8709   -6.4159    0.0000 H   0  0  0  0  0  0  0  0  0  0  0  0
    2.8660   -3.4018    0.0000 H   0  0  0  0  0  0  0  0  0  0  0  0
    2.8660   -6.6418    0.0000 H   0  0  0  0  0  0  0  0  0  0  0  0
   13.5184    3.6936    0.0000 H   0  0  0  0  0  0  0  0  0  0  0  0
   14.1481    2.8237    0.0000 H   0  0  0  0  0  0  0  0  0  0  0  0
    1.4631   -4.2118    0.0000 H   0  0  0  0  0  0  0  0  0  0  0  0
    1.4631   -5.8318    0.0000 H   0  0  0  0  0  0  0  0  0  0  0  0
    9.1597    6.4159    0.0000 H   0  0  0  0  0  0  0  0  0  0  0  0
    8.5270    5.5482    0.0000 H   0  0  0  0  0  0  0  0  0  0  0  0
   10.8820    6.2319    0.0000 H   0  0  0  0  0  0  0  0  0  0  0  0
   11.3171    5.2501    0.0000 H   0  0  0  0  0  0  0  0  0  0  0  0
  1 32  2  0  0  0  0
  2 37  2  0  0  0  0
  3 48  1  0  0  0  0
  3133  1  0  0  0  0
  4 48  2  0  0  0  0
  5 49  2  0  0  0  0
  6 51  2  0  0  0  0
  7 52  2  0  0  0  0
  8 55  2  0  0  0  0
  9 56  2  0  0  0  0
 10 67  2  0  0  0  0
 11 72  2  0  0  0  0
 12 74  2  0  0  0  0
 13 27  1  0  0  0  0
 13 30  1  0  0  0  0
 13 37  1  0  0  0  0
 14 31  1  0  0  0  0
 14 32  1  0  0  0  0
 14 33  1  0  0  0  0
 15 39  1  0  0  0  0
 15 42  1  0  0  0  0
 15 49  1  0  0  0  0
 16 40  1  0  0  0  0
 16 46  1  0  0  0  0
 16 56  1  0  0  0  0
 17 36  1  0  0  0  0
 17 55  1  0  0  0  0
 17111  1  0  0  0  0
 18 47  1  0  0  0  0
 18 52  1  0  0  0  0
 18118  1  0  0  0  0
 19 51  1  0  0  0  0
 19 53  1  0  0  0  0
 19121  1  0  0  0  0
 20 58  1  0  0  0  0
 20 67  1  0  0  0  0
 20132  1  0  0  0  0
 21 66  1  0  0  0  0
 21 74  1  0  0  0  0
 21144  1  0  0  0  0
 22 70  1  0  0  0  0
 22 73  1  0  0  0  0
 22145  1  0  0  0  0
 23 65  1  0  0  0  0
 23 79  2  0  0  0  0
 24 72  1  0  0  0  0
 24148  1  0  0  0  0
 24149  1  0  0  0  0
 25 79  1  0  0  0  0
 25154  1  0  0  0  0
 25155  1  0  0  0  0
 26 79  1  0  0  0  0
 26152  1  0  0  0  0
 26153  1  0  0  0  0
 27 28  1  0  0  0  0
 27 32  1  0  0  0  0
 27 80  1  0  0  0  0
 28 29  1  0  0  0  0
 28 81  1  0  0  0  0
 28 82  1  0  0  0  0
 29 30  1  0  0  0  0
 29 83  1  0  0  0  0
 29 84  1  0  0  0  0
 30 85  1  0  0  0  0
 30 86  1  0  0  0  0
 31 34  1  0  0  0  0
 31 48  1  0  0  0  0
 31 87  1  0  0  0  0
 33 35  1  0  0  0  0
 33 88  1  0  0  0  0
 33 89  1  0  0  0  0
 34 35  1  0  0  0  0
 34 90  1  0  0  0  0
 34 91  1  0  0  0  0
 35 92  1  0  0  0  0
 35 93  1  0  0  0  0
 36 37  1  0  0  0  0
 36 38  1  0  0  0  0
 36 94  1  0  0  0  0
 38 50  1  0  0  0  0
 38 54  1  0  0  0  0
 38 96  1  0  0  0  0
 39 41  1  0  0  0  0
 39 51  1  0  0  0  0
 39 95  1  0  0  0  0
 40 44  1  0  0  0  0
 40 52  1  0  0  0  0
 40 97  1  0  0  0  0
 41 43  1  0  0  0  0
 41 98  1  0  0  0  0
 41 99  1  0  0  0  0
 42 43  1  0  0  0  0
 42100  1  0  0  0  0
 42101  1  0  0  0  0
 43102  1  0  0  0  0
 43103  1  0  0  0  0
 44 45  1  0  0  0  0
 44104  1  0  0  0  0
 44105  1  0  0  0  0
 45 46  1  0  0  0  0
 45106  1  0  0  0  0
 45107  1  0  0  0  0
 46108  1  0  0  0  0
 46109  1  0  0  0  0
 47 49  1  0  0  0  0
 47 57  1  0  0  0  0
 47110  1  0  0  0  0
 50 60  1  0  0  0  0
 50112  1  0  0  0  0
 50113  1  0  0  0  0
 53 55  1  0  0  0  0
 53 59  1  0  0  0  0
 53114  1  0  0  0  0
 54115  1  0  0  0  0
 54116  1  0  0  0  0
 54117  1  0  0  0  0
 56 58  1  0  0  0  0
 57 61  1  0  0  0  0
 57119  1  0  0  0  0
 57120  1  0  0  0  0
 58 62  1  0  0  0  0
 58122  1  0  0  0  0
 59 63  1  0  0  0  0
 59123  1  0  0  0  0
 59124  1  0  0  0  0
 60125  1  0  0  0  0
 60126  1  0  0  0  0
 60127  1  0  0  0  0
 61 65  1  0  0  0  0
 61128  1  0  0  0  0
 61129  1  0  0  0  0
 62 64  1  0  0  0  0
 62130  1  0  0  0  0
 62131  1  0  0  0  0
 63 72  1  0  0  0  0
 63134  1  0  0  0  0
 63135  1  0  0  0  0
 64 69  1  0  0  0  0
 64 70  2  0  0  0  0
 65136  1  0  0  0  0
 65137  1  0  0  0  0
 66 67  1  0  0  0  0
 66 68  1  0  0  0  0
 66138  1  0  0  0  0
 68 71  1  0  0  0  0
 68139  1  0  0  0  0
 68140  1  0  0  0  0
 69 73  1  0  0  0  0
 69 75  2  0  0  0  0
 70141  1  0  0  0  0
 71 74  1  0  0  0  0
 71142  1  0  0  0  0
 71143  1  0  0  0  0
 73 76  2  0  0  0  0
 75 77  1  0  0  0  0
 75146  1  0  0  0  0
 76 78  1  0  0  0  0
 76147  1  0  0  0  0
 77 78  2  0  0  0  0
 77150  1  0  0  0  0
 78151  1  0  0  0  0
M  END
> <PUBCHEM_COMPOUND_CID>
37056

> <PUBCHEM_COMPOUND_CANONICALIZED>
1

> <PUBCHEM_CACTVS_COMPLEXITY>
2330

> <PUBCHEM_CACTVS_HBOND_ACCEPTOR>
15

> <PUBCHEM_CACTVS_HBOND_DONOR>
10

> <PUBCHEM_CACTVS_ROTATABLE_BOND>
24

> <PUBCHEM_CACTVS_SUBSKEYS>
AAADcfB//AAAAAAAAAAAAAAAAAAAAWLFixYwAAAAAAAAAFgB8AAAHgAQCAAADSjBngQ/yPPJkgCoAzX3fACCgCExAiAI2aG4ZJgKYPLAkbGUYAhklgDYyAecm8KOgAAAAAACAAAAAAAAAAQAAAAAAAAAAA==

> <PUBCHEM_IUPAC_OPENEYE_NAME>
1-[1-[2-[[5-amino-2-[[1-[5-guanidino-2-[[1-[3-(1H-indol-3-yl)-2-[(5-oxopyrrolidine-2-carbonyl)amino]propanoyl]pyrrolidine-2-carbonyl]amino]pentanoyl]pyrrolidine-2-carbonyl]amino]-5-oxo-pentanoyl]amino]-3-methyl-pentanoyl]pyrrolidine-2-carbonyl]pyrrolidine-2-carboxylic acid

> <PUBCHEM_IUPAC_CAS_NAME>
1-[[1-[2-[[5-amino-2-[[[1-[5-(diaminomethylideneamino)-2-[[[1-[3-(1H-indol-3-yl)-1-oxo-2-[[oxo-(5-oxo-2-pyrrolidinyl)methyl]amino]propyl]-2-pyrrolidinyl]-oxomethyl]amino]-1-oxopentyl]-2-pyrrolidinyl]-oxomethyl]amino]-1,5-dioxopentyl]amino]-3-methyl-1-oxopentyl]-2-pyrrolidinyl]-oxomethyl]-2-pyrrolidinecarboxylic acid

> <PUBCHEM_IUPAC_NAME>
1-[1-[2-[[5-amino-2-[[1-[5-(diaminomethylideneamino)-2-[[1-[3-(1H-indol-3-yl)-2-[(5-oxopyrrolidine-2-carbonyl)amino]propanoyl]pyrrolidine-2-carbonyl]amino]pentanoyl]pyrrolidine-2-carbonyl]amino]-5-oxopentanoyl]amino]-3-methylpentanoyl]pyrrolidine-2-carbonyl]pyrrolidine-2-carboxylic acid

> <PUBCHEM_IUPAC_SYSTEMATIC_NAME>
1-[1-[2-[[5-azanyl-2-[[1-[5-[bis(azanyl)methylideneamino]-2-[[1-[3-(1H-indol-3-yl)-2-[(5-oxidanylidenepyrrolidin-2-yl)carbonylamino]propanoyl]pyrrolidin-2-yl]carbonylamino]pentanoyl]pyrrolidin-2-yl]carbonylamino]-5-oxidanylidene-pentanoyl]amino]-3-methyl-pentanoyl]pyrrolidin-2-yl]carbonylpyrrolidine-2-carboxylic acid

> <PUBCHEM_IUPAC_TRADITIONAL_NAME>
1-[1-[2-[[5-amino-2-[[1-[5-guanidino-2-[[1-[3-(1H-indol-3-yl)-2-(pyroglutamoylamino)propanoyl]prolyl]amino]pentanoyl]prolyl]amino]-5-keto-pentanoyl]amino]-3-methyl-pentanoyl]prolyl]proline

> <PUBCHEM_NIST_INCHI>
InChI=1S/C53H76N14O12/c1-3-29(2)43(51(77)66-25-9-16-39(66)50(76)67-26-10-17-40(67)52(78)79)63-45(71)34(18-20-41(54)68)60-46(72)37-14-7-23-64(37)48(74)35(13-6-22-57-53(55)56)61-47(73)38-15-8-24-65(38)49(75)36(62-44(70)33-19-21-42(69)59-33)27-30-28-58-32-12-5-4-11-31(30)32/h4-5,11-12,28-29,33-40,43,58H,3,6-10,13-27H2,1-2H3,(H2,54,68)(H,59,69)(H,60,72)(H,61,73)(H,62,70)(H,63,71)(H,78,79)(H4,55,56,57)

> <PUBCHEM_NIST_INCHIKEY>
UUUHXMGGBIUAPW-UHFFFAOYSA-N

> <PUBCHEM_XLOGP3_AA>
-0.9

> <PUBCHEM_EXACT_MASS>
1100.576714

> <PUBCHEM_MOLECULAR_FORMULA>
C53H76N14O12

> <PUBCHEM_MOLECULAR_WEIGHT>
1101.25714

> <PUBCHEM_OPENEYE_CAN_SMILES>
CCC(C)C(C(=O)N1CCCC1C(=O)N2CCCC2C(=O)O)NC(=O)C(CCC(=O)N)NC(=O)C3CCCN3C(=O)C(CCCN=C(N)N)NC(=O)C4CCCN4C(=O)C(CC5=CNC6=CC=CC=C65)NC(=O)C7CCC(=O)N7

> <PUBCHEM_OPENEYE_ISO_SMILES>
CCC(C)C(C(=O)N1CCCC1C(=O)N2CCCC2C(=O)O)NC(=O)C(CCC(=O)N)NC(=O)C3CCCN3C(=O)C(CCCN=C(N)N)NC(=O)C4CCCN4C(=O)C(CC5=CNC6=CC=CC=C65)NC(=O)C7CCC(=O)N7

> <PUBCHEM_CACTVS_TPSA>
387

> <PUBCHEM_MONOISOTOPIC_WEIGHT>
1100.576714

> <PUBCHEM_TOTAL_CHARGE>
0

> <PUBCHEM_HEAVY_ATOM_COUNT>
79

> <PUBCHEM_ATOM_DEF_STEREO_COUNT>
0

> <PUBCHEM_ATOM_UDEF_STEREO_COUNT>
10

> <PUBCHEM_BOND_DEF_STEREO_COUNT>
0

> <PUBCHEM_BOND_UDEF_STEREO_COUNT>
0

> <PUBCHEM_ISOTOPIC_ATOM_COUNT>
0

> <PUBCHEM_COMPONENT_COUNT>
1

> <PUBCHEM_CACTVS_TAUTO_COUNT>
192

> <PUBCHEM_COORDINATE_TYPE>
1
3

> <PUBCHEM_BONDANNOTATIONS>
22  70  8
22  73  8
27  32  3
31  48  3
36  37  3
38  54  3
39  51  3
40  52  3
47  57  3
53  59  3
58  62  3
64  69  8
64  70  8
66  67  3
69  73  8
69  75  8
73  76  8
75  77  8
76  78  8
77  78  8

$$$$

