2977
  -OEChem-10021005223D

 53 55  0     1  0  0  0  0  0999 V2000
   -0.6906    1.8965    0.3014 O   0  0  0  0  0  0  0  0  0  0  0  0
   -0.1704   -2.8320   -0.7702 O   0  0  0  0  0  0  0  0  0  0  0  0
   -2.5473    0.8498   -0.9731 C   0  0  2  0  0  0  0  0  0  0  0  0
   -2.0056   -0.5630   -0.6802 C   0  0  2  0  0  0  0  0  0  0  0  0
   -2.1221    1.8923    0.1045 C   0  0  0  0  0  0  0  0  0  0  0  0
   -4.0492    0.7986   -1.3174 C   0  0  0  0  0  0  0  0  0  0  0  0
   -2.8522   -1.3895    0.3107 C   0  0  0  0  0  0  0  0  0  0  0  0
   -0.5695   -0.4873   -0.2270 C   0  0  0  0  0  0  0  0  0  0  0  0
   -4.3353   -1.1556    0.2261 C   0  0  0  0  0  0  0  0  0  0  0  0
   -0.0171    0.7108    0.2329 C   0  0  0  0  0  0  0  0  0  0  0  0
   -2.4264    3.3209   -0.3953 C   0  0  0  0  0  0  0  0  0  0  0  0
   -2.7793    1.7386    1.4824 C   0  0  0  0  0  0  0  0  0  0  0  0
   -4.8613   -0.1717   -0.5184 C   0  0  0  0  0  0  0  0  0  0  0  0
    0.2376   -1.6363   -0.2662 C   0  0  0  0  0  0  0  0  0  0  0  0
    1.3223    0.7585    0.6354 C   0  0  0  0  0  0  0  0  0  0  0  0
   -5.1966   -2.0879    1.0265 C   0  0  0  0  0  0  0  0  0  0  0  0
    2.1129   -0.3885    0.5939 C   0  0  0  0  0  0  0  0  0  0  0  0
    1.5701   -1.5875    0.1433 C   0  0  0  0  0  0  0  0  0  0  0  0
    3.5410   -0.3265    1.0190 C   0  0  0  0  0  0  0  0  0  0  0  0
    4.5269    0.0224   -0.1114 C   0  0  0  0  0  0  0  0  0  0  0  0
    5.9875    0.0114    0.3502 C   0  0  0  0  0  0  0  0  0  0  0  0
    6.9354    0.3367   -0.8048 C   0  0  0  0  0  0  0  0  0  0  0  0
    8.3892    0.2895   -0.3623 C   0  0  0  0  0  0  0  0  0  0  0  0
   -2.0380    1.1753   -1.8956 H   0  0  0  0  0  0  0  0  0  0  0  0
   -2.0228   -1.0955   -1.6437 H   0  0  0  0  0  0  0  0  0  0  0  0
   -4.1549    0.5106   -2.3718 H   0  0  0  0  0  0  0  0  0  0  0  0
   -4.5049    1.7891   -1.2342 H   0  0  0  0  0  0  0  0  0  0  0  0
   -2.5310   -1.2155    1.3444 H   0  0  0  0  0  0  0  0  0  0  0  0
   -2.6616   -2.4546    0.1221 H   0  0  0  0  0  0  0  0  0  0  0  0
   -3.4984    3.5283   -0.4530 H   0  0  0  0  0  0  0  0  0  0  0  0
   -1.9773    4.0692    0.2695 H   0  0  0  0  0  0  0  0  0  0  0  0
   -1.9837    3.4911   -1.3835 H   0  0  0  0  0  0  0  0  0  0  0  0
   -2.4704    2.5562    2.1458 H   0  0  0  0  0  0  0  0  0  0  0  0
   -3.8710    1.7546    1.4244 H   0  0  0  0  0  0  0  0  0  0  0  0
   -2.4597    0.8274    1.9920 H   0  0  0  0  0  0  0  0  0  0  0  0
   -5.9406   -0.0512   -0.5666 H   0  0  0  0  0  0  0  0  0  0  0  0
    1.7461    1.6992    0.9807 H   0  0  0  0  0  0  0  0  0  0  0  0
   -5.0506   -3.1206    0.6935 H   0  0  0  0  0  0  0  0  0  0  0  0
   -6.2619   -1.8537    0.9288 H   0  0  0  0  0  0  0  0  0  0  0  0
   -4.9379   -2.0247    2.0885 H   0  0  0  0  0  0  0  0  0  0  0  0
    2.1964   -2.4756    0.0965 H   0  0  0  0  0  0  0  0  0  0  0  0
    3.6489    0.4055    1.8305 H   0  0  0  0  0  0  0  0  0  0  0  0
    3.8273   -1.2890    1.4636 H   0  0  0  0  0  0  0  0  0  0  0  0
    4.2784    1.0110   -0.5181 H   0  0  0  0  0  0  0  0  0  0  0  0
    4.4020   -0.6938   -0.9337 H   0  0  0  0  0  0  0  0  0  0  0  0
    0.5457   -3.4867   -0.7087 H   0  0  0  0  0  0  0  0  0  0  0  0
    6.1229    0.7411    1.1575 H   0  0  0  0  0  0  0  0  0  0  0  0
    6.2326   -0.9756    0.7609 H   0  0  0  0  0  0  0  0  0  0  0  0
    6.7106    1.3337   -1.2011 H   0  0  0  0  0  0  0  0  0  0  0  0
    6.7867   -0.3787   -1.6220 H   0  0  0  0  0  0  0  0  0  0  0  0
    8.6546   -0.7059    0.0079 H   0  0  0  0  0  0  0  0  0  0  0  0
    9.0492    0.5265   -1.2027 H   0  0  0  0  0  0  0  0  0  0  0  0
    8.5801    1.0151    0.4349 H   0  0  0  0  0  0  0  0  0  0  0  0
  1  5  1  0  0  0  0
  1 10  1  0  0  0  0
  2 14  1  0  0  0  0
  2 46  1  0  0  0  0
  3  4  1  0  0  0  0
  3  5  1  0  0  0  0
  3  6  1  0  0  0  0
  3 24  1  0  0  0  0
  4  7  1  0  0  0  0
  4  8  1  0  0  0  0
  4 25  1  0  0  0  0
  5 11  1  0  0  0  0
  5 12  1  0  0  0  0
  6 13  1  0  0  0  0
  6 26  1  0  0  0  0
  6 27  1  0  0  0  0
  7  9  1  0  0  0  0
  7 28  1  0  0  0  0
  7 29  1  0  0  0  0
  8 10  1  0  0  0  0
  8 14  2  0  0  0  0
  9 13  2  0  0  0  0
  9 16  1  0  0  0  0
 10 15  2  0  0  0  0
 11 30  1  0  0  0  0
 11 31  1  0  0  0  0
 11 32  1  0  0  0  0
 12 33  1  0  0  0  0
 12 34  1  0  0  0  0
 12 35  1  0  0  0  0
 13 36  1  0  0  0  0
 14 18  1  0  0  0  0
 15 17  1  0  0  0  0
 15 37  1  0  0  0  0
 16 38  1  0  0  0  0
 16 39  1  0  0  0  0
 16 40  1  0  0  0  0
 17 18  2  0  0  0  0
 17 19  1  0  0  0  0
 18 41  1  0  0  0  0
 19 20  1  0  0  0  0
 19 42  1  0  0  0  0
 19 43  1  0  0  0  0
 20 21  1  0  0  0  0
 20 44  1  0  0  0  0
 20 45  1  0  0  0  0
 21 22  1  0  0  0  0
 21 47  1  0  0  0  0
 21 48  1  0  0  0  0
 22 23  1  0  0  0  0
 22 49  1  0  0  0  0
 22 50  1  0  0  0  0
 23 51  1  0  0  0  0
 23 52  1  0  0  0  0
 23 53  1  0  0  0  0
M  END
> <PUBCHEM_COMPOUND_CID>
2977

> <PUBCHEM_CONFORMER_RMSD>
0.8

> <PUBCHEM_CONFORMER_DIVERSEORDER>
27
38
17
40
10
5
49
48
46
29
44
3
45
43
39
15
25
47
42
34
32
31
12
20
26
41
28
33
9
4
22
24
35
37
2
30
19
23
16
13
11
36
14
8
6
18
21
1
7

> <PUBCHEM_MMFF94_PARTIAL_CHARGES>
20
1 -0.36
10 0.08
13 -0.29
14 0.08
15 -0.15
16 0.14
17 -0.14
18 -0.15
19 0.14
2 -0.53
36 0.15
37 0.15
4 0.14
41 0.15
46 0.45
5 0.28
6 0.14
7 0.14
8 -0.14
9 -0.28

> <PUBCHEM_EFFECTIVE_ROTOR_COUNT>
4.8

> <PUBCHEM_PHARMACOPHORE_FEATURES>
8
1 1 acceptor
1 2 donor
1 23 hydrophobe
3 5 11 12 hydrophobe
4 19 20 21 22 hydrophobe
6 1 3 4 5 8 10 rings
6 3 4 6 7 9 13 rings
6 8 10 14 15 17 18 rings

> <PUBCHEM_HEAVY_ATOM_COUNT>
23

> <PUBCHEM_ATOM_DEF_STEREO_COUNT>
0

> <PUBCHEM_ATOM_UDEF_STEREO_COUNT>
2

> <PUBCHEM_BOND_DEF_STEREO_COUNT>
0

> <PUBCHEM_BOND_UDEF_STEREO_COUNT>
0

> <PUBCHEM_ISOTOPIC_ATOM_COUNT>
0

> <PUBCHEM_COMPONENT_COUNT>
1

> <PUBCHEM_CACTVS_TAUTO_COUNT>
9

> <PUBCHEM_CONFORMER_ID>
00000BA10000001B

> <PUBCHEM_MMFF94_ENERGY>
58.6437

> <PUBCHEM_FEATURE_SELFOVERLAP>
40.662

> <PUBCHEM_SHAPE_FINGERPRINT>
10366900 7 18188507842767886475
10411042 1 18050006584812579383
10591671 39 18342731902237467878
10670039 82 18410013273783820092
10730089 173 18411419506020956206
10906281 52 18263930019939177149
11315181 36 18202844348854431180
11578080 2 17129600178298758895
12011746 2 18335147483539294407
12166972 35 17703788077354898604
12236239 1 17846503643015514538
12390115 104 18113892823053952056
12403259 415 17967824846867007752
12596602 18 17704359874856183114
12616971 3 5617249343446724128
13140716 1 18046351833767560411
13288520 33 18410575071931287773
13631057 29 17917711249734916131
14787075 74 18130789988858572003
15042514 8 18191588549268180415
15183329 4 18410571834591583102
15475509 79 18261387802304606702
16945 1 18336834169179191861
17093844 174 9151168736689634780
17980427 23 17846488274989839196
18335252 98 18342733001717843354
18608769 82 18336264536109465002
18681886 176 18270967847670858560
19427546 20 18272654579827734069
21236236 1 18334011722208276720
21267235 1 18337390440337336803
2297311 6 18410009914211565572
23366157 5 17910675698193690442
23402539 116 18260557688152328911
23559900 14 18340499888731856481
2748010 2 18043817704568517655
335352 9 18411989049076257333
34797466 226 17822000966815242732
350125 39 18408603656146577776
4325135 7 17775284949894064782
497634 4 18131355232361115028
5104073 3 18262807396802277226
5486654 2 18411705374311854423
9709674 26 18191876836579532551

> <PUBCHEM_SHAPE_MULTIPOLES>
461.59
14.85
2.49
1.07
30.94
0.4
-1.6
2.56
-20.65
0.12
-3.34
1.39
35.91
-1.61

> <PUBCHEM_SHAPE_SELFOVERLAP>
968.181

> <PUBCHEM_SHAPE_VOLUME>
259.6

> <PUBCHEM_COORDINATE_TYPE>
2
5
255

$$$$

